[TITLE]
;;Project Title/Notes
Grasbrook

[OPTIONS]
;;Option            	Value
FLOW_UNITS          	LPS
INFILTRATION        	GREEN_AMPT
FLOW_ROUTING        	DYNWAVE
LINK_OFFSETS        	DEPTH
MIN_SLOPE           	0
ALLOW_PONDING       	NO
SKIP_STEADY_STATE   	NO

START_DATE          	01/01/2021
START_TIME          	00:00:00
REPORT_START_DATE   	01/01/2021
REPORT_START_TIME   	00:00:00
END_DATE            	01/01/2021
END_TIME            	04:00:00
SWEEP_START         	01/01
SWEEP_END           	12/31
DRY_DAYS            	0
REPORT_STEP         	00:01:00
WET_STEP            	00:01:00
DRY_STEP            	01:00:00
ROUTING_STEP        	0:01:00 
RULE_STEP           	00:00:00

INERTIAL_DAMPING    	PARTIAL
NORMAL_FLOW_LIMITED 	SLOPE
FORCE_MAIN_EQUATION 	H-W
VARIABLE_STEP       	0.75
LENGTHENING_STEP    	0
MIN_SURFAREA        	1.167
MAX_TRIALS          	8
HEAD_TOLERANCE      	0.0015
SYS_FLOW_TOL        	5
LAT_FLOW_TOL        	5
MINIMUM_STEP        	0.5
THREADS             	1

[EVAPORATION]
;;Data Source   	Parameters
;;--------------	----------------
MONTHLY         	0.3556	0.8382	2.5654	3.8354	4.6482	5.7658	5.8674	5.08  	3.9878	2.5146	1.7018	0.7112
DRY_ONLY        	YES

[RAINGAGES]
;;Name          	Format   	Interval	SCF     	Source    
;;--------------	---------	------	------	----------
RainGage_2        	INTENSITY	0:05    	1       	FILE      	"../data/rain_data/timeseries_2.txt"	2-yr      	MM
RainGage_5        	INTENSITY	0:05    	1       	FILE      	"../data/rain_data/timeseries_5.txt"	5-yr      	MM
RainGage_10        	INTENSITY	0:05    	1       	FILE      	"../data/rain_data/timeseries_10.txt"	10-yr      	MM
RainGage_50        	INTENSITY	0:05    	1       	FILE      	"../data/rain_data/timeseries_50.txt"	50-yr      	MM
RainGage_100       	INTENSITY	0:05    	1       	FILE      	"../data/rain_data/timeseries_100.txt"	100-yr    	MM

[SUBCATCHMENTS]
;;Name          	Rain Gage       	Outlet          	Area    	%Imperv 	Width   	%Slope  	CurbLen 	SnowPack        
;;--------------	----------------	----------------	--------	--------	--------	--------	--------	----------------
Sub000          	RainGage_10        	J_out19         	0.0566  	100     	18.9    	2       	0
Sub001          	RainGage_10        	J_out18         	0.0653  	100     	21.8    	2       	0
Sub002          	RainGage_10        	J_out09         	0.2646  	100     	132.3   	1.5     	0
Sub003          	RainGage_10       	J_out09         	0.0408  	80      	27.2    	2       	0
Sub004          	RainGage_10        	J027            	0.1724  	0       	57.5    	2       	0
Sub005          	RainGage_10        	J004            	0.302   	100     	755     	1.5     	0
Sub006          	RainGage_10        	J_out07         	0.234   	100     	117     	1.5     	0
Sub007          	RainGage_10        	J027            	0.0733  	100     	183.3   	1.5     	0
Sub008          	RainGage_10        	J028            	0.1279  	100     	426.3   	2.5     	0
Sub009          	RainGage_10        	J026            	0.0977  	0       	32.6    	2       	0
Sub010          	RainGage_10        	J022            	0.2629  	100     	657.3   	1.5     	0
Sub011          	RainGage_10        	J028            	0.0462  	0       	15.4    	2       	0
Sub012          	RainGage_10        	J029            	0.1191  	0       	39.7    	2       	0
Sub013          	RainGage_10        	J005            	0.3937  	100     	100.9   	2       	0
Sub014          	RainGage_10        	Sub021          	0.3966  	100     	991.5   	1.5     	0
Sub015          	RainGage_10        	J_out09         	0.1888  	0       	62.9    	2       	0
Sub016          	RainGage_10        	J_out08         	0.0508  	100     	25.4    	1.5     	0
Sub017          	RainGage_10        	JA_out28        	0.3321  	0       	110.7   	2       	0
Sub018          	RainGage_10        	J_out15         	0.0892  	100     	297.3   	2.5     	0
Sub019          	RainGage_10        	Sub377          	0.5581  	0       	186     	2       	0
Sub020          	RainGage_10        	Sub015          	0.2083  	0       	69.4    	2       	0
Sub021          	RainGage_10        	Sub019          	0.5506  	0       	183.5   	2       	0
Sub022          	RainGage_10        	Sub015          	0.1384  	100     	346     	1.5     	0
Sub023          	RainGage_10        	Sub019          	0.0845  	100     	211.3   	1.5     	0
Sub024          	RainGage_10        	Sub021          	0.0321  	100     	80.3    	1.5     	0
Sub025          	RainGage_10        	Sub021          	0.1668  	100     	417     	1.5     	0
Sub026          	RainGage_10        	Sub021          	0.0477  	100     	119.3   	1.5     	0
Sub027          	RainGage_10        	Sub019          	0.1408  	100     	352     	1.5     	0
Sub028          	RainGage_10        	J020            	0.1888  	100     	629.3   	2.5     	0
Sub029          	RainGage_10        	J021            	0.03    	80      	20      	2       	0
Sub030          	RainGage_10        	J022            	0.0456  	80      	30.4    	2       	0
Sub031          	RainGage_10        	J020            	0.1309  	0       	43.6    	2       	0
Sub032          	RainGage_10        	J020            	0.0605  	100     	201.7   	2.5     	0
Sub033          	RainGage_10        	J024            	0.2131  	100     	532.8   	1.5     	0
Sub034          	RainGage_10        	J025            	0.02    	0       	6.7     	2       	0
Sub035          	RainGage_10        	J025            	0.03    	0       	10      	2       	0
Sub036          	RainGage_10        	Sub070          	0.1375  	0       	45.8    	2       	0
Sub037          	RainGage_10        	J026            	0.032   	0       	10.7    	2       	0
Sub038          	RainGage_10        	J026            	0.015   	0       	5       	2       	0
Sub039          	RainGage_10        	J025            	0.0743  	0       	24.8    	2       	0
Sub040          	RainGage_10        	J025            	0.0266  	100     	13.3    	1.5     	0
Sub041          	RainGage_10        	J026            	0.03    	100     	15      	1.5     	0
Sub042          	RainGage_10        	J025            	0.0742  	100     	49.5    	2       	0
Sub043          	RainGage_10        	J_out22         	0.086   	0       	28.7    	2       	0
Sub044          	RainGage_10        	J_out22         	0.0035  	0       	1.2     	2       	0
Sub045          	RainGage_10        	J_out22         	0.0023  	0       	0.8     	2       	0
Sub046          	RainGage_10        	JA_out27        	0.011   	0       	3.7     	2       	0
Sub047          	RainGage_10        	J_out25         	0.1273  	100     	63.7    	1.5     	0
Sub048          	RainGage_10        	J023            	0.0566  	100     	28.3    	1.5     	0
Sub049          	RainGage_10        	JA_out27        	0.256   	0       	85.3    	2       	0
Sub050          	RainGage_10        	J_out23         	0.0671  	100     	167.8   	1.5     	0
Sub051          	RainGage_10        	J_out23         	0.0232  	100     	58      	1.5     	0
Sub052          	RainGage_10        	J023            	0.1374  	100     	343.5   	1.5     	0
Sub053          	RainGage_10        	J025            	0.1881  	100     	470.3   	1.5     	0
Sub054          	RainGage_10        	J024            	0.0713  	100     	178.3   	1.5     	0
Sub055          	RainGage_10        	J020            	0.0779  	100     	194.8   	1.5     	0
Sub056          	RainGage_10        	J022            	0.0236  	100     	59      	1.5     	0
Sub057          	RainGage_10        	J_out22         	0.1247  	100     	311.8   	1.5     	0
Sub058          	RainGage_10        	J_out22         	0.1738  	100     	434.5   	1.5     	0
Sub059          	RainGage_10        	JA_out26        	0.1876  	0       	62.5    	2       	0
Sub060          	RainGage_10        	J_out19         	0.0133  	100     	33.3    	1.5     	0
Sub061          	RainGage_10        	J_out17         	0.015   	100     	37.5    	1.5     	0
Sub062          	RainGage_10        	J_out17         	0.0123  	100     	30.8    	1.5     	0
Sub063          	RainGage_10        	J_out16         	0.0164  	100     	41      	1.5     	0
Sub064          	RainGage_10        	J_out16         	0.0057  	100     	14.3    	1.5     	0
Sub065          	RainGage_10        	J_out15         	0.0141  	100     	35.3    	1.5     	0
Sub066          	RainGage_10        	J_out17         	0.0246  	100     	61.5    	1.5     	0
Sub067          	RainGage_10        	J_out17         	0.0266  	80      	17.7    	2       	0
Sub068          	RainGage_10        	J_out19         	0.0152  	80      	10.1    	2       	0
Sub069          	RainGage_10        	J_out22         	0.058   	80      	38.7    	2       	0
Sub070          	RainGage_10        	J029            	0.1587  	80      	105.8   	2       	0
Sub071          	RainGage_10        	J029            	0.0846  	80      	56.4    	2       	0
Sub072          	RainGage_10        	J029            	0.0607  	80      	40.5    	2       	0
Sub073          	RainGage_10        	J028            	0.0732  	80      	48.8    	2       	0
Sub074          	RainGage_10        	J028            	0.1633  	100     	81.7    	1.5     	0
Sub075          	RainGage_10        	J_out22         	0.0503  	100     	125.8   	1.5     	0
Sub076          	RainGage_10        	J028            	0.0852  	100     	213     	1.5     	0
Sub077          	RainGage_10        	J_out21         	0.047   	100     	117.5   	1.5     	0
Sub078          	RainGage_10        	J_out20         	0.2318  	100     	579.5   	1.5     	0
Sub079          	RainGage_10        	J027            	0.0521  	100     	130.3   	1.5     	0
Sub080          	RainGage_10        	J_out16         	0.0005  	100     	1.3     	1.5     	0
Sub081          	RainGage_10        	J_out13         	0.0126  	100     	6.3     	1.5     	0
Sub082          	RainGage_10        	J003            	0.0299  	100     	74.8    	1.5     	0
Sub083          	RainGage_10        	Sub021          	0.0659  	100     	43.9    	2       	0
Sub084          	RainGage_10        	J003            	0.0241  	100     	60.3    	1.5     	0
Sub085          	RainGage_10        	J002            	0.0458  	100     	114.5   	1.5     	0
Sub086          	RainGage_10        	JA_out28        	0.0354  	0       	11.8    	2       	0
Sub087          	RainGage_10        	Sub021          	0.0673  	100     	168.3   	1.5     	0
Sub088          	RainGage_10        	Sub015          	0.024   	0       	8       	2       	0
Sub089          	RainGage_10        	Sub021          	0.0395  	100     	98.8    	1.5     	0
Sub090          	RainGage_10        	Sub021          	0.0698  	100     	174.5   	1.5     	0
Sub091          	RainGage_10        	Sub097          	0.0422  	100     	105.5   	1.5     	0
Sub092          	RainGage_10        	Sub098          	0.0452  	100     	113     	1.5     	0
Sub093          	RainGage_10        	Sub395          	0.0146  	100     	36.5    	1.5     	0
Sub094          	RainGage_10        	J008            	0.1183  	0       	39.4    	2       	0
Sub095          	RainGage_10        	J010            	0.2217  	0       	73.9    	2       	0
Sub096          	RainGage_10        	J011            	0.162   	0       	54      	2       	0
Sub097          	RainGage_10        	J013            	0.0491  	0       	16.4    	2       	0
Sub098          	RainGage_10        	J014            	0.0441  	0       	14.7    	2       	0
Sub099          	RainGage_10        	Sub094          	0.0566  	100     	37.7    	2       	0
Sub100          	RainGage_10        	Sub095          	0.0737  	100     	49.1    	2       	0
Sub101          	RainGage_10        	Sub097          	0.0445  	100     	29.7    	2       	0
Sub102          	RainGage_10        	J015            	0.0099  	80      	6.6     	2       	0
Sub103          	RainGage_10        	J012            	0.0153  	80      	10.2    	2       	0
Sub104          	RainGage_10        	J009            	0.01    	80      	6.7     	2       	0
Sub105          	RainGage_10        	J_out05         	0.0432  	100     	108     	1.5     	0
Sub106          	RainGage_10        	J_out04         	0.053   	100     	132.5   	1.5     	0
Sub107          	RainGage_10        	J015            	0.0131  	100     	6.6     	1.5     	0
Sub108          	RainGage_10        	J015            	0.0067  	100     	3.4     	1.5     	0
Sub109          	RainGage_10        	J015            	0.003   	100     	1.5     	1.5     	0
Sub110          	RainGage_10        	J015            	0.014   	80      	9.3     	2       	0
Sub111          	RainGage_10        	J014            	0.0049  	100     	12.3    	1.5     	0
Sub112          	RainGage_10        	J_out04         	0.0276  	100     	13.8    	1.5     	0
Sub113          	RainGage_10        	J_out04         	0.003   	100     	1.5     	1.5     	0
Sub114          	RainGage_10        	J_out04         	0.0055  	100     	2.8     	1.5     	0
Sub115          	RainGage_10        	J_out04         	0.0161  	80      	10.7    	2       	0
Sub116          	RainGage_10        	J015            	0.0076  	100     	19      	1.5     	0
Sub117          	RainGage_10        	J017            	0.1559  	100     	389.8   	1.5     	0
Sub118          	RainGage_10        	Sub021          	0.7143  	80      	357.2   	2       	0
Sub119          	RainGage_10        	Sub094          	0.0307  	100     	76.8    	1.5     	0
Sub120          	RainGage_10        	J_out15         	0.2248  	100     	749.3   	2.5     	0
Sub121          	RainGage_10        	J_out16         	0.0427  	100     	106.8   	1.5     	0
Sub122          	RainGage_10        	J_out17         	0.026   	100     	65      	1.5     	0
Sub123          	RainGage_10        	J020            	0.0645  	100     	161.3   	1.5     	0
Sub124          	RainGage_10        	J_out20         	0.1571  	100     	392.8   	1.5     	0
Sub125          	RainGage_10        	J031            	0.2474  	100     	824.7   	2.5     	0
Sub126          	RainGage_10        	Sub021          	0.0772  	0       	25.7    	2       	0
Sub127          	RainGage_10        	Sub019          	0.0315  	0       	10.5    	2       	0
Sub128          	RainGage_10        	Sub015          	0.0245  	0       	8.2     	2       	0
Sub129          	RainGage_10        	J_out13         	0.3169  	0       	105.6   	2       	0
Sub130          	RainGage_10        	J_out13         	0.0994  	0       	33.1    	2       	0
Sub131          	RainGage_10        	Sub096          	0.0506  	100     	33.7    	2       	0
Sub132          	RainGage_10        	Sub098          	0.0455  	100     	30.3    	2       	0
Sub133          	RainGage_10        	Sub377          	0.0668  	100     	44.5    	2       	0
Sub134          	RainGage_10        	J029            	0.0994  	100     	248.5   	1.5     	0
Sub135          	RainGage_10        	J029            	0.154   	100     	385     	1.5     	0
Sub136          	RainGage_10        	J029            	0.0647  	0       	21.6    	2       	0
Sub137          	RainGage_10        	J028            	0.0106  	100     	26.5    	1.5     	0
Sub138          	RainGage_10        	J_out22         	0.0091  	100     	22.8    	1.5     	0
Sub139          	RainGage_10        	J020            	0.0902  	100     	300.7   	2.5     	0
Sub140          	RainGage_10        	J_out15         	0.024   	100     	60      	1.5     	0
Sub141          	RainGage_10        	J_out14         	0.079   	100     	197.5   	1.5     	0
Sub142          	RainGage_10        	J_out15         	0.0024  	100     	6       	1.5     	0
Sub143          	RainGage_10        	J_out15         	0.0122  	100     	30.5    	1.5     	0
Sub144          	RainGage_10        	J_out15         	0.0056  	100     	14      	1.5     	0
Sub145          	RainGage_10        	J_out19         	0.0244  	100     	81.3    	2.5     	0
Sub146          	RainGage_10        	JA_out26        	0.0157  	0       	5.2     	2       	0
Sub147          	RainGage_10        	Sub095          	0.0698  	100     	174.5   	1.5     	0
Sub148          	RainGage_10        	Sub096          	0.077   	100     	192.5   	1.5     	0
Sub149          	RainGage_10        	Sub097          	0.0503  	100     	125.8   	1.5     	0
Sub150          	RainGage_10        	J014            	0.0583  	100     	145.8   	1.5     	0
Sub151          	RainGage_10        	Sub098          	0.017   	100     	42.5    	1.5     	0
Sub152          	RainGage_10        	Sub395          	0.0095  	100     	23.8    	1.5     	0
Sub153          	RainGage_10        	J_out02         	0.0713  	100     	178.3   	1.5     	0
Sub154          	RainGage_10        	J_out01         	0.0239  	100     	59.8    	1.5     	0
Sub155          	RainGage_10        	J_out06         	0.037   	100     	92.5    	1.5     	0
Sub156          	RainGage_10        	J_out03         	0.0638  	100     	159.5   	1.5     	0
Sub157          	RainGage_10        	J017            	0.1816  	100     	90.8    	2       	0
Sub158          	RainGage_10        	Sub021          	0.4551  	80      	303.4   	2       	0
Sub159          	RainGage_10        	JA_out28        	0.0967  	80      	64.5    	2       	0
Sub160          	RainGage_10        	J_out15         	0.0025  	100     	6.3     	1.5     	0
Sub161          	RainGage_10        	J_out15         	0.0088  	100     	22      	1.5     	0
Sub162          	RainGage_10        	J_out15         	0.0018  	100     	4.5     	1.5     	0
Sub163          	RainGage_10        	J_out13         	0.0852  	100     	42.6    	1.5     	0
Sub164          	RainGage_10        	JA_out28        	0.1283  	100     	320.8   	1.5     	0
Sub165          	RainGage_10        	Sub021          	0.1397  	0       	46.6    	2       	0
Sub166          	RainGage_10        	J004            	0.4937  	100     	246.9   	1.5     	0
Sub167          	RainGage_10        	J_out10         	0.1309  	100     	327.3   	1.5     	0
Sub168          	RainGage_10        	J_out10         	0.0678  	100     	169.5   	1.5     	0
Sub169          	RainGage_10        	J014            	0.0212  	100     	53      	1.5     	0
Sub170          	RainGage_10        	J011            	0.034   	100     	85      	1.5     	0
Sub171          	RainGage_10        	J005            	0.0391  	0       	13      	2       	0
Sub172          	RainGage_10        	J002            	0.2868  	100     	956     	2.5     	0
Sub173          	RainGage_10        	J_out07         	0.0097  	100     	24.3    	1.5     	0
Sub174          	RainGage_10        	J_out07         	0.0013  	0       	0.4     	2       	0
Sub175          	RainGage_10        	J_out04         	0.0578  	100     	144.5   	1.5     	0
Sub176          	RainGage_10        	J_out07         	0.0464  	100     	154.7   	2.5     	0
Sub177          	RainGage_10        	J_out13         	0.0705  	100     	176.3   	1.5     	0
Sub178          	RainGage_10        	J_out12         	0.028   	100     	70      	1.5     	0
Sub179          	RainGage_10        	J_out06         	0.067   	100     	33.5    	1.5     	0
Sub180          	RainGage_10        	J015            	0.0285  	100     	14.3    	1.5     	0
Sub181          	RainGage_10        	J_out12         	0.0007  	100     	1.8     	1.5     	0
Sub182          	RainGage_10        	J_out12         	0.0002  	100     	0.5     	1.5     	0
Sub183          	RainGage_10        	J_out11         	0.0002  	100     	0.5     	1.5     	0
Sub184          	RainGage_10        	J_out11         	0.0004  	100     	1       	1.5     	0
Sub185          	RainGage_10        	J_out11         	0.0007  	100     	1.8     	1.5     	0
Sub186          	RainGage_10        	J_out11         	0.0055  	100     	13.8    	1.5     	0
Sub187          	RainGage_10        	J_out11         	0.0174  	100     	43.5    	1.5     	0
Sub188          	RainGage_10        	J_out11         	0.082   	100     	205     	1.5     	0
Sub189          	RainGage_10        	J_out11         	0.0018  	100     	4.5     	1.5     	0
Sub190          	RainGage_10        	J_out11         	0.0205  	100     	51.3    	1.5     	0
Sub191          	RainGage_10        	J_out04         	0.0457  	100     	114.3   	1.5     	0
Sub192          	RainGage_10        	J_out12         	0.0018  	100     	4.5     	1.5     	0
Sub193          	RainGage_10        	J_out12         	0.0523  	100     	130.8   	1.5     	0
Sub194          	RainGage_10        	J_out12         	0.0816  	100     	204     	1.5     	0
Sub195          	RainGage_10        	J_out12         	0.0018  	100     	4.5     	1.5     	0
Sub196          	RainGage_10        	J_out12         	0.0017  	100     	4.3     	1.5     	0
Sub197          	RainGage_10        	J_out13         	0.0021  	0       	0.7     	2       	0
Sub198          	RainGage_10        	J_out02         	0.005   	100     	12.5    	1.5     	0
Sub199          	RainGage_10        	J009            	0.0065  	100     	3.3     	1.5     	0
Sub200          	RainGage_10        	J_out01         	0.0162  	100     	8.1     	1.5     	0
Sub201          	RainGage_10        	J_out01         	0.0095  	100     	4.8     	1.5     	0
Sub202          	RainGage_10        	J_out01         	0.0475  	100     	118.8   	1.5     	0
Sub203          	RainGage_10        	J027            	0.002   	100     	5       	1.5     	0
Sub204          	RainGage_10        	J_out22         	0.0079  	0       	2.6     	2       	0
Sub205          	RainGage_10        	J_out11         	0.0021  	100     	5.3     	1.5     	0
Sub206          	RainGage_10        	J_out11         	0.0032  	100     	8       	1.5     	0
Sub207          	RainGage_10        	J_out11         	0.0028  	100     	7       	1.5     	0
Sub208          	RainGage_10        	J_out06         	0.0103  	100     	25.8    	1.5     	0
Sub209          	RainGage_10        	J_out03         	0.0483  	100     	120.8   	1.5     	0
Sub210          	RainGage_10        	J_out06         	0.0053  	100     	13.3    	1.5     	0
Sub211          	RainGage_10        	J_out05         	0.0025  	100     	6.3     	1.5     	0
Sub212          	RainGage_10        	J_out04         	0.015   	100     	37.5    	1.5     	0
Sub213          	RainGage_10        	J_out12         	0.0023  	100     	5.8     	1.5     	0
Sub214          	RainGage_10        	J_out12         	0.003   	100     	7.5     	1.5     	0
Sub215          	RainGage_10        	J_out12         	0.0029  	100     	7.3     	1.5     	0
Sub216          	RainGage_10        	J_out01         	0.0056  	100     	2.8     	1.5     	0
Sub217          	RainGage_10        	J_out09         	0.0095  	100     	23.8    	1.5     	0
Sub218          	RainGage_10        	J_out09         	0.0002  	100     	0.5     	1.5     	0
Sub219          	RainGage_10        	J_out01         	0.0433  	100     	108.3   	1.5     	0
Sub220          	RainGage_10        	J007            	0.0112  	100     	5.6     	1.5     	0
Sub221          	RainGage_10        	JA_out28        	0.0418  	100     	104.5   	1.5     	0
Sub222          	RainGage_10        	JA_out28        	0.0511  	100     	127.8   	1.5     	0
Sub223          	RainGage_10        	J001            	0.2685  	100     	671.3   	1.5     	0
Sub224          	RainGage_10        	J001            	0.0211  	100     	70.3    	2.5     	0
Sub225          	RainGage_10        	Sub015          	0       	100     	0       	1.5     	0
Sub226          	RainGage_10        	J_out01         	0.0076  	100     	19      	1.5     	0
Sub227          	RainGage_10        	J_out02         	0.0025  	100     	6.3     	1.5     	0
Sub228          	RainGage_10        	J_out02         	0.0039  	100     	9.8     	1.5     	0
Sub229          	RainGage_10        	J_out04         	0.0124  	100     	6.2     	1.5     	0
Sub230          	RainGage_10        	J_out02         	0.0108  	100     	27      	1.5     	0
Sub231          	RainGage_10        	J001            	0.1445  	100     	481.7   	2.5     	0
Sub232          	RainGage_10        	J028            	0.1623  	100     	405.8   	1.5     	0
Sub233          	RainGage_10        	JA_out27        	0.0392  	0       	13.1    	2       	0
Sub234          	RainGage_10        	J_out15         	0.018   	100     	45      	1.5     	0
Sub235          	RainGage_10        	J_out15         	0.0029  	100     	7.3     	1.5     	0
Sub236          	RainGage_10        	J_out16         	0.0014  	100     	3.5     	1.5     	0
Sub237          	RainGage_10        	J_out16         	0.0014  	100     	3.5     	1.5     	0
Sub238          	RainGage_10        	J_out15         	0.0021  	100     	5.3     	1.5     	0
Sub239          	RainGage_10        	J_out13         	0.0208  	100     	52      	1.5     	0
Sub240          	RainGage_10        	J_out09         	0.0229  	100     	57.3    	1.5     	0
Sub241          	RainGage_10        	J_out09         	0.0066  	100     	16.5    	1.5     	0
Sub242          	RainGage_10        	J_out07         	0.0271  	100     	67.8    	1.5     	0
Sub243          	RainGage_10        	J_out07         	0.0053  	100     	13.3    	1.5     	0
Sub244          	RainGage_10        	J_out06         	0.0288  	100     	72      	1.5     	0
Sub245          	RainGage_10        	J015            	0.0023  	100     	5.8     	1.5     	0
Sub246          	RainGage_10        	J_out05         	0.0021  	100     	5.3     	1.5     	0
Sub247          	RainGage_10        	J_out04         	0.0023  	100     	5.8     	1.5     	0
Sub248          	RainGage_10        	J_out02         	0.002   	100     	5       	1.5     	0
Sub249          	RainGage_10        	J009            	0.0211  	100     	52.8    	1.5     	0
Sub250          	RainGage_10        	J007            	0.0287  	100     	71.8    	1.5     	0
Sub251          	RainGage_10        	J001            	0.084   	100     	210     	1.5     	0
Sub252          	RainGage_10        	J020            	0.0242  	100     	80.7    	2.5     	0
Sub253          	RainGage_10        	J021            	0.0241  	100     	80.3    	2.5     	0
Sub254          	RainGage_10        	J024            	0.024   	100     	80      	2.5     	0
Sub255          	RainGage_10        	J005            	0.2776  	100     	185.1   	2       	0
Sub256          	RainGage_10        	J_out23         	0.3028  	100     	151.4   	2       	0
Sub257          	RainGage_10        	J031            	0.3151  	100     	157.6   	2       	0
Sub258          	RainGage_10        	J003            	0.154   	100     	77      	2       	0
Sub259          	RainGage_10        	J003            	0.0351  	100     	17.6    	2       	0
Sub260          	RainGage_10        	J_out24         	0.5342  	100     	178.1   	2       	0
Sub261          	RainGage_10        	J_out24         	0.6737  	100     	224.6   	2       	0
Sub262          	RainGage_10        	J_out23         	0.1201  	100     	40      	2       	0
Sub263          	RainGage_10        	J024            	0.3028  	100     	100.9   	2       	0
Sub264          	RainGage_10        	J022            	0.592   	100     	197.3   	2       	0
Sub265          	RainGage_10        	J021            	0.7757  	100     	258.6   	2       	0
Sub266          	RainGage_10        	J027            	0.1201  	100     	40      	2       	0
Sub267          	RainGage_10        	J_out21         	0.5112  	100     	170.4   	2       	0
Sub268          	RainGage_10        	J_out20         	0.7996  	100     	266.5   	2       	0
Sub269          	RainGage_10        	J_out20         	0.4797  	100     	159.9   	2       	0
Sub270          	RainGage_10        	J_out19         	0.1581  	100     	52.7    	2       	0
Sub271          	RainGage_10        	J_out19         	0.2082  	100     	69.4    	2       	0
Sub272          	RainGage_10        	J_out18         	0.1701  	100     	56.7    	2       	0
Sub273          	RainGage_10        	J_out18         	0.2196  	100     	73.2    	2       	0
Sub274          	RainGage_10        	J_out17         	0.1901  	100     	63.4    	2       	0
Sub275          	RainGage_10        	J_out17         	0.1901  	100     	63.4    	2       	0
Sub276          	RainGage_10        	J_out16         	0.1461  	100     	48.7    	2       	0
Sub277          	RainGage_10        	J_out16         	0.1461  	100     	48.7    	2       	0
Sub278          	RainGage_10        	J_out14         	0.422   	100     	211     	2       	0
Sub279          	RainGage_10        	Sub039          	0.2111  	100     	70.4    	2       	0
Sub280          	RainGage_10        	Sub070          	0.229   	100     	76.3    	2       	0
Sub281          	RainGage_10        	Sub035          	0.2626  	100     	87.5    	2       	0
Sub282          	RainGage_10        	Sub037          	0.3551  	100     	118.4   	2       	0
Sub283          	RainGage_10        	Sub094          	0.0739  	100     	37      	2       	0
Sub284          	RainGage_10        	Sub094          	0.0937  	100     	46.9    	2       	0
Sub285          	RainGage_10        	Sub094          	0.0751  	100     	37.6    	2       	0
Sub286          	RainGage_10        	Sub094          	0.048   	100     	24      	2       	0
Sub287          	RainGage_10        	Sub094          	0.0804  	100     	40.2    	2       	0
Sub288          	RainGage_10        	Sub095          	0.1232  	100     	61.6    	2       	0
Sub289          	RainGage_10        	Sub095          	0.063   	100     	31.5    	2       	0
Sub290          	RainGage_10        	Sub095          	0.0576  	100     	28.8    	2       	0
Sub291          	RainGage_10        	Sub095          	0.1061  	100     	53.1    	2       	0
Sub292          	RainGage_10        	Sub095          	0.0414  	100     	20.7    	2       	0
Sub293          	RainGage_10        	Sub095          	0.0815  	100     	40.8    	2       	0
Sub294          	RainGage_10        	Sub096          	0.0943  	100     	47.2    	2       	0
Sub295          	RainGage_10        	Sub096          	0.0531  	100     	26.6    	2       	0
Sub296          	RainGage_10        	Sub096          	0.0648  	100     	32.4    	2       	0
Sub297          	RainGage_10        	Sub096          	0.0796  	100     	39.8    	2       	0
Sub298          	RainGage_10        	Sub096          	0.0659  	100     	33      	2       	0
Sub299          	RainGage_10        	Sub096          	0.045   	100     	22.5    	2       	0
Sub300          	RainGage_10        	Sub097          	0.0638  	100     	31.9    	2       	0
Sub301          	RainGage_10        	Sub097          	0.054   	100     	27      	2       	0
Sub302          	RainGage_10        	Sub097          	0.0486  	100     	24.3    	2       	0