[TITLE]
;;Project Title/Notes
Grasbrook

[OPTIONS]
;;Option            	Value
FLOW_UNITS          	LPS
INFILTRATION        	GREEN_AMPT
FLOW_ROUTING        	DYNWAVE
LINK_OFFSETS        	DEPTH
MIN_SLOPE           	0
ALLOW_PONDING       	NO
SKIP_STEADY_STATE   	NO

START_DATE          	01/01/2021
START_TIME          	00:00:00
REPORT_START_DATE   	01/01/2021
REPORT_START_TIME   	00:00:00
END_DATE            	01/01/2021
END_TIME            	04:00:00
SWEEP_START         	01/01
SWEEP_END           	12/31
DRY_DAYS            	0
REPORT_STEP         	00:01:00
WET_STEP            	00:01:00
DRY_STEP            	01:00:00
ROUTING_STEP        	0:01:00 
RULE_STEP           	00:00:00

INERTIAL_DAMPING    	PARTIAL
NORMAL_FLOW_LIMITED 	SLOPE
FORCE_MAIN_EQUATION 	H-W
VARIABLE_STEP       	0.75
LENGTHENING_STEP    	0
MIN_SURFAREA        	1.167
MAX_TRIALS          	8
HEAD_TOLERANCE      	0.0015
SYS_FLOW_TOL        	5
LAT_FLOW_TOL        	5
MINIMUM_STEP        	0.5
THREADS             	1

[EVAPORATION]
;;Data Source   	Parameters
;;--------------	----------------
MONTHLY         	0.3556	0.8382	2.5654	3.8354	4.6482	5.7658	5.8674	5.08  	3.9878	2.5146	1.7018	0.7112
DRY_ONLY        	YES

[RAINGAGES]
;;Name          	Format   	Interval	SCF     	Source    
;;--------------	---------	------	------	----------
RG_2yr          	INTENSITY	0:05    	1       	FILE      	"../data/rain_data/timeseries_2.txt"	2-yr      	MM  
RG_5yr          	INTENSITY	0:05    	1       	FILE      	"../data/rain_data/timeseries_5.txt"	5-yr      	MM 
RG_10yr         	INTENSITY	0:05    	1       	FILE      	"../data/rain_data/timeseries_10.txt"   10-yr  		MM   
RG_50yr         	INTENSITY	0:05    	1       	FILE      	"../data/rain_data/timeseries_50.txt"	50-yr     	MM   
RG_100yr        	INTENSITY	0:05    	1       	FILE      	"../data/rain_data/timeseries_100.txt"	100-yr    	MM   

[SUBCATCHMENTS]
;;Name          	Rain Gage       	Outlet          	Area    	%Imperv 	Width   	%Slope  	CurbLen 	SnowPack        
;;--------------	----------------	----------------	--------	--------	--------	--------	--------	----------------
Sub000	RG_10yr	outfall1	0.0228	100	11.4	2	0	
Sub001	RG_10yr	outfall1	0.1984	100	99.2	2	0	
Sub002	RG_10yr	outfall1	0.0469	100	23.5	2	0	
Sub003	RG_10yr	outfall1	0.0469	100	23.5	2	0	
Sub004	RG_10yr	outfall1	0.0576	100	19.2	2	0	
Sub005	RG_10yr	outfall1	0.0449	100	15	2	0	
Sub006	RG_10yr	outfall1	0.0449	100	15	2	0	
Sub007	RG_10yr	outfall1	0.0576	100	19.2	2	0	
Sub008	RG_10yr	outfall1	0.0576	100	19.2	2	0	
Sub009	RG_10yr	outfall1	0.0615	100	20.5	2	0	
Sub010	RG_10yr	outfall1	0.0615	100	20.5	2	0	
Sub011	RG_10yr	outfall1	0.0615	100	20.5	2	0	
Sub012	RG_10yr	outfall1	0.0576	100	19.2	2	0	
Sub013	RG_10yr	outfall1	0.0615	100	20.5	2	0	
Sub014	RG_10yr	outfall1	0.0615	100	20.5	2	0	
Sub015	RG_10yr	outfall1	0.0615	100	20.5	2	0	
Sub016	RG_10yr	outfall1	0.0576	100	19.2	2	0	
Sub017	RG_10yr	outfall1	0.0615	100	20.5	2	0	
Sub018	RG_10yr	outfall1	0.0615	100	20.5	2	0	
Sub019	RG_10yr	outfall1	0.0615	100	20.5	2	0	
Sub020	RG_10yr	outfall1	0.0576	100	19.2	2	0	
Sub021	RG_10yr	outfall1	0.2555	100	85.2	2	0	
Sub022	RG_10yr	outfall1	0.0342	100	11.4	2	0	
Sub023	RG_10yr	Sub357	0.063	100	21	2	0	
Sub024	RG_10yr	Sub357	0.0548	100	18.3	2	0	
Sub025	RG_10yr	Sub357	0.0486	100	16.2	2	0	
Sub026	RG_10yr	Sub357	0.0635	100	21.2	2	0	
Sub027	RG_10yr	Sub357	0.0988	100	49.4	2	0	
Sub028	RG_10yr	Sub356	0.0723	100	24.1	2	0	
Sub029	RG_10yr	Sub356	0.074	100	24.7	2	0	
Sub030	RG_10yr	Sub356	0.0508	100	16.9	2	0	
Sub031	RG_10yr	Sub356	0.0457	100	15.2	2	0	
Sub032	RG_10yr	Sub356	0.049	100	16.3	2	0	
Sub033	RG_10yr	Sub356	0.04	100	13.3	2	0	
Sub034	RG_10yr	Sub356	0.0911	100	45.6	2	0	
Sub035	RG_10yr	Sub418	0.0551	100	18.4	2	0	
Sub036	RG_10yr	Sub418	0.0737	100	24.6	2	0	
Sub037	RG_10yr	Sub418	0.0508	100	16.9	2	0	
Sub038	RG_10yr	Sub418	0.064	100	21.3	2	0	
Sub039	RG_10yr	Sub418	0.062	100	20.7	2	0	
Sub040	RG_10yr	Sub418	0.04	100	13.3	2	0	
Sub041	RG_10yr	Sub418	0.0882	100	29.4	2	0	
Sub042	RG_10yr	Sub418	0.0468	100	23.4	2	0	
Sub043	RG_10yr	Sub399	0.0642	100	21.4	2	0	
Sub044	RG_10yr	Sub399	0.0741	100	24.7	2	0	
Sub045	RG_10yr	Sub399	0.0508	100	16.9	2	0	
Sub046	RG_10yr	Sub399	0.0541	100	27.1	2	0	
Sub047	RG_10yr	Sub399	0.058	100	19.3	2	0	
Sub048	RG_10yr	Sub399	0.0557	100	18.6	2	0	
Sub049	RG_10yr	Sub399	0.0975	100	32.5	2	0	
Sub050	RG_10yr	Sub399	0.04	100	13.3	2	0	
Sub051	RG_10yr	Sub399	0.058	100	19.3	2	0	
Sub052	RG_10yr	Sub389	0.0566	100	18.9	2	0	
Sub053	RG_10yr	Sub389	0.1026	100	34.2	2	0	
Sub054	RG_10yr	Sub389	0.0837	100	27.9	2	0	
Sub055	RG_10yr	Sub389	0.0725	100	24.2	2	0	
Sub056	RG_10yr	Sub389	0.04	100	13.3	2	0	
Sub057	RG_10yr	Sub389	0.1221	100	61.1	2	0	
Sub058	RG_10yr	Sub389	0.0572	100	19.1	2	0	
Sub059	RG_10yr	Sub389	0.058	100	19.3	2	0	
Sub060	RG_10yr	outfall1	0.121	100	60.5	2	0	
Sub061	RG_10yr	outfall1	0.0846	100	28.2	2	0	
Sub062	RG_10yr	outfall1	0.1201	100	40	2	0	
Sub063	RG_10yr	outfall1	0.0929	100	31	2	0	
Sub064	RG_10yr	outfall1	0.0929	100	31	2	0	
Sub065	RG_10yr	outfall1	0.0929	100	31	2	0	
Sub066	RG_10yr	outfall1	0.9272	100	309.1	2	0	
Sub067	RG_10yr	outfall1	0.1157	100	38.6	2	0	
Sub068	RG_10yr	outfall1	0.6725	100	224.2	2	0	
Sub069	RG_10yr	outfall1	0.1199	100	40	2	0	
Sub070	RG_10yr	outfall1	0.4341	100	144.7	2	0	
Sub071	RG_10yr	outfall1	0.7996	100	266.5	2	0	
Sub072	RG_10yr	outfall1	0.7948	80	529.9	2	0	
Sub073	RG_10yr	outfall1	0.0877	100	29.2	2	0	
Sub074	RG_10yr	outfall1	0.2581	0	86	2	0	
Sub075	RG_10yr	outfall1	0.0024	100	6	1.5	0	
Sub076	RG_10yr	outfall1	0.0476	100	119	1.5	0	
Sub077	RG_10yr	outfall1	0.0411	100	102.8	1.5	0	
Sub078	RG_10yr	outfall1	0.0009	100	2.3	1.5	0	
Sub079	RG_10yr	outfall1	0.0556	0	18.5	2	0	
Sub080	RG_10yr	outfall1	0.018	100	45	1.5	0	
Sub081	RG_10yr	outfall1	0.1852	100	463	1.5	0	
Sub082	RG_10yr	outfall1	0.0283	100	70.8	1.5	0	
Sub083	RG_10yr	outfall1	0.0038	100	9.5	1.5	0	
Sub084	RG_10yr	outfall1	0.0022	100	5.5	1.5	0	
Sub085	RG_10yr	outfall1	0.0022	100	5.5	1.5	0	
Sub086	RG_10yr	outfall1	0.0022	100	5.5	1.5	0	
Sub087	RG_10yr	outfall1	0.0022	100	5.5	1.5	0	
Sub088	RG_10yr	outfall1	0.0027	100	6.8	1.5	0	
Sub089	RG_10yr	outfall1	0.016	0	5.3	2	0	
Sub090	RG_10yr	outfall1	0.018	0	6	2	0	
Sub091	RG_10yr	outfall1	0.018	0	6	2	0	
Sub092	RG_10yr	outfall1	0.0309	0	10.3	2	0	
Sub093	RG_10yr	outfall1	0.1852	100	463	1.5	0	
Sub094	RG_10yr	outfall1	0.1826	100	456.5	1.5	0	
Sub095	RG_10yr	outfall1	0.0141	100	35.3	1.5	0	
Sub096	RG_10yr	outfall1	0.0167	100	41.8	1.5	0	
Sub097	RG_10yr	outfall1	0.0162	100	40.5	1.5	0	
Sub098	RG_10yr	outfall1	0.0523	100	130.8	1.5	0	
Sub099	RG_10yr	outfall1	0.152	100	380	1.5	0	
Sub100	RG_10yr	outfall1	0.0029	100	7.3	1.5	0	
Sub101	RG_10yr	outfall1	0.008	100	20	1.5	0	
Sub102	RG_10yr	outfall1	0.0084	100	21	1.5	0	
Sub103	RG_10yr	outfall1	0.0154	100	38.5	1.5	0	
Sub104	RG_10yr	outfall1	0.4339	0	144.6	2	0	
Sub105	RG_10yr	outfall1	0.884	0	294.7	2	0	
Sub106	RG_10yr	outfall1	0.039	100	19.5	1.5	0	
Sub107	RG_10yr	outfall1	0.0289	100	14.5	1.5	0	
Sub108	RG_10yr	outfall1	0.0375	100	18.8	1.5	0	
Sub109	RG_10yr	outfall1	0.0593	0	19.8	2	0	
Sub110	RG_10yr	outfall1	0.0169	100	42.3	1.5	0	
Sub111	RG_10yr	outfall1	0.0226	100	56.5	1.5	0	
Sub112	RG_10yr	outfall1	0.0238	100	59.5	1.5	0	
Sub113	RG_10yr	outfall1	0.1807	80	120.5	2	0	
Sub114	RG_10yr	outfall1	0.01	80	6.7	2	0	
Sub115	RG_10yr	outfall1	0.077	100	192.5	1.5	0	
Sub116	RG_10yr	outfall1	0.0192	100	48	1.5	0	
Sub117	RG_10yr	outfall1	0.0192	100	48	1.5	0	
Sub118	RG_10yr	outfall1	0.0192	100	48	1.5	0	
Sub119	RG_10yr	outfall1	0.0312	100	78	1.5	0	
Sub120	RG_10yr	outfall1	0.0029	100	7.3	1.5	0	
Sub121	RG_10yr	outfall1	0.0208	80	13.9	2	0	
Sub122	RG_10yr	outfall1	0.0174	80	11.6	2	0	
Sub123	RG_10yr	outfall1	0.0173	80	11.5	2	0	
Sub124	RG_10yr	outfall1	0.0223	80	14.9	2	0	
Sub125	RG_10yr	outfall1	0.0544	80	36.3	2	0	
Sub126	RG_10yr	outfall1	0.0401	80	26.7	2	0	
Sub127	RG_10yr	outfall1	0.0289	80	19.3	2	0	
Sub128	RG_10yr	outfall1	0.0015	100	3.8	1.5	0	
Sub129	RG_10yr	outfall1	0.0028	100	7	1.5	0	
Sub130	RG_10yr	outfall1	0.005	100	12.5	1.5	0	
Sub131	RG_10yr	outfall1	0.0034	100	8.5	1.5	0	
Sub132	RG_10yr	outfall1	0.0133	100	33.3	1.5	0	
Sub133	RG_10yr	outfall1	0.0997	100	49.9	1.5	0	
Sub134	RG_10yr	outfall1	0.0138	0	4.6	2	0	
Sub135	RG_10yr	outfall1	0.0502	0	16.7	2	0	
Sub136	RG_10yr	outfall1	0.0683	0	22.8	2	0	
Sub137	RG_10yr	outfall1	0.1004	0	33.5	2	0	
Sub138	RG_10yr	outfall1	0.1155	0	38.5	2	0	
Sub139	RG_10yr	outfall1	0.0721	80	48.1	2	0	
Sub140	RG_10yr	outfall1	0.0364	80	24.3	2	0	
Sub141	RG_10yr	outfall1	0.1537	100	384.3	1.5	0	
Sub142	RG_10yr	outfall1	0.1423	100	355.8	1.5	0	
Sub143	RG_10yr	outfall1	0.1532	100	383	1.5	0	
Sub144	RG_10yr	outfall1	0.2325	100	581.3	1.5	0	
Sub145	RG_10yr	outfall1	0.0026	100	6.5	1.5	0	
Sub146	RG_10yr	outfall1	0.1875	0	62.5	2	0	
Sub147	RG_10yr	outfall1	0.0985	100	246.3	1.5	0	
Sub148	RG_10yr	outfall1	0.0573	100	143.3	1.5	0	
Sub149	RG_10yr	outfall1	0.0877	100	219.3	1.5	0	
Sub150	RG_10yr	outfall1	0.0258	100	64.5	1.5	0	
Sub151	RG_10yr	outfall1	0.0213	100	53.3	1.5	0	
Sub152	RG_10yr	outfall1	0.0041	100	10.3	1.5	0	
Sub153	RG_10yr	outfall1	0.0088	100	22	1.5	0	
Sub154	RG_10yr	outfall1	0.2643	0	88.1	2	0	
Sub155	RG_10yr	outfall1	0.0264	100	66	1.5	0	
Sub156	RG_10yr	outfall1	0.0379	100	94.8	1.5	0	
Sub157	RG_10yr	outfall1	0.0077	100	19.3	1.5	0	
Sub158	RG_10yr	outfall1	0.0091	100	22.8	1.5	0	
Sub159	RG_10yr	outfall1	0.0022	100	5.5	1.5	0	
Sub160	RG_10yr	outfall1	0.0067	100	16.8	1.5	0	
Sub161	RG_10yr	outfall1	0.0423	100	105.8	1.5	0	
Sub162	RG_10yr	outfall1	0.3079	0	102.6	2	0	
Sub163	RG_10yr	outfall1	0.028	80	18.7	2	0	
Sub164	RG_10yr	outfall1	0.0898	0	29.9	2	0	
Sub165	RG_10yr	outfall1	0.0274	100	68.5	1.5	0	
Sub166	RG_10yr	outfall1	0.0633	100	158.3	1.5	0	
Sub167	RG_10yr	outfall1	0.0183	100	61	2.5	0	
Sub168	RG_10yr	outfall1	0.0127	100	31.8	1.5	0	
Sub169	RG_10yr	outfall1	0.0162	100	40.5	1.5	0	
Sub170	RG_10yr	outfall1	0.0462	100	23.1	1.5	0	
Sub171	RG_10yr	outfall1	0.0227	100	11.4	1.5	0	
Sub172	RG_10yr	outfall1	0.0208	100	10.4	1.5	0	
Sub173	RG_10yr	outfall1	0.2006	80	133.7	2	0	
Sub174	RG_10yr	outfall1	1.0474	100	523.7	1.5	0	
Sub175	RG_10yr	outfall1	0.0045	100	11.3	1.5	0	
Sub176	RG_10yr	outfall1	0.0045	100	11.3	1.5	0	
Sub177	RG_10yr	outfall1	0.0384	100	19.2	1.5	0	
Sub178	RG_10yr	outfall1	0.0121	100	6.1	1.5	0	
Sub179	RG_10yr	outfall1	0.065	80	43.3	2	0	
Sub180	RG_10yr	outfall1	0.063	100	157.5	1.5	0	
Sub181	RG_10yr	outfall1	0.2363	0	78.8	2	0	
Sub182	RG_10yr	outfall1	0.1409	0	47	2	0	
Sub183	RG_10yr	outfall1	0.0136	0	4.5	2	0	
Sub184	RG_10yr	outfall1	0.1227	0	40.9	2	0	
Sub185	RG_10yr	outfall1	0.047	0	15.7	2	0	
Sub186	RG_10yr	outfall1	0.2239	0	74.6	2	0	
Sub187	RG_10yr	outfall1	0.1501	0	50	2	0	
Sub188	RG_10yr	outfall1	0.1046	0	34.9	2	0	
Sub189	RG_10yr	outfall1	0.086	0	28.7	2	0	
Sub190	RG_10yr	outfall1	0.1816	0	60.5	2	0	
Sub191	RG_10yr	outfall1	0.013	0	4.3	2	0	
Sub192	RG_10yr	outfall1	0.0027	100	6.8	1.5	0	
Sub193	RG_10yr	outfall1	0.0048	0	1.6	2	0	
Sub194	RG_10yr	outfall1	0.0436	0	14.5	2	0	
Sub195	RG_10yr	outfall1	0.0117	0	3.9	2	0	
Sub196	RG_10yr	outfall1	0.1529	0	51	2	0	
Sub197	RG_10yr	outfall1	0.0094	100	31.3	2.5	0	
Sub198	RG_10yr	outfall1	0.0307	80	20.5	2	0	
Sub199	RG_10yr	outfall1	0.0855	100	213.8	1.5	0	
Sub200	RG_10yr	outfall1	0.1056	100	264	1.5	0	
Sub201	RG_10yr	outfall1	0.2334	0	77.8	2	0	
Sub202	RG_10yr	outfall1	0.1721	0	57.4	2	0	
Sub203	RG_10yr	outfall1	0.05	0	16.7	2	0	
Sub204	RG_10yr	outfall1	0.044	0	14.7	2	0	
Sub205	RG_10yr	outfall1	0.044	0	14.7	2	0	
Sub206	RG_10yr	outfall1	0.05	0	16.7	2	0	
Sub207	RG_10yr	outfall1	0.1697	0	56.6	2	0	
Sub208	RG_10yr	outfall1	0.0802	100	40.1	1.5	0	
Sub209	RG_10yr	outfall1	0.0016	100	4	1.5	0	
Sub210	RG_10yr	outfall1	0.0168	0	5.6	2	0	
Sub211	RG_10yr	outfall1	0.1786	100	89.3	1.5	0	
Sub212	RG_10yr	outfall1	0.013	100	32.5	1.5	0	
Sub213	RG_10yr	outfall1	0.0016	100	4	1.5	0	
Sub214	RG_10yr	outfall1	0.0389	100	97.3	1.5	0	
Sub215	RG_10yr	outfall1	0.007	100	17.5	1.5	0	
Sub216	RG_10yr	outfall1	0.0348	0	11.6	2	0	
Sub217	RG_10yr	outfall1	0.0267	100	66.8	1.5	0	
Sub218	RG_10yr	outfall1	0.0003	100	0.8	1.5	0	
Sub219	RG_10yr	outfall1	0.0045	100	11.3	1.5	0	
Sub220	RG_10yr	outfall1	0.0007	0	0.2	2	0	
Sub221	RG_10yr	outfall1	0.0031	100	1.6	1.5	0	
Sub222	RG_10yr	outfall1	0.0001	0	0	2	0	
Sub223	RG_10yr	outfall1	0.0656	0	21.9	2	0	
Sub224	RG_10yr	outfall1	0.036	80	24	2	0	
Sub225	RG_10yr	outfall1	0.0705	80	47	2	0	
Sub226	RG_10yr	outfall1	0.0609	80	40.6	2	0	
Sub227	RG_10yr	outfall1	0.037	80	24.7	2	0	
Sub228	RG_10yr	outfall1	0.0021	100	5.3	1.5	0	
Sub229	RG_10yr	outfall1	0.0696	100	174	1.5	0	
Sub230	RG_10yr	outfall1	0.0024	100	6	1.5	0	
Sub231	RG_10yr	outfall1	0.0199	0	6.6	2	0	
Sub232	RG_10yr	outfall1	0.0811	0	27	2	0	
Sub233	RG_10yr	outfall1	0.04	0	13.3	2	0	
Sub234	RG_10yr	outfall1	0.0023	100	5.8	1.5	0	
Sub235	RG_10yr	outfall1	0.0037	0	1.2	2	0	
Sub236	RG_10yr	outfall1	0.0023	100	5.8	1.5	0	
Sub237	RG_10yr	outfall1	0.0767	100	191.8	1.5	0	
Sub238	RG_10yr	outfall1	0.0729	80	48.6	2	0	
Sub239	RG_10yr	outfall1	0.1338	100	66.9	1.5	0	
Sub240	RG_10yr	outfall1	0.0786	100	39.3	1.5	0	
Sub241	RG_10yr	outfall1	0.0106	100	26.5	1.5	0	
Sub242	RG_10yr	outfall1	0.0999	100	249.8	1.5	0	
Sub243	RG_10yr	outfall1	0.8604	80	573.6	2	0	
Sub244	RG_10yr	outfall1	0.0152	100	38	1.5	0	
Sub245	RG_10yr	outfall1	0.0867	0	28.9	2	0	
Sub246	RG_10yr	outfall1	0.1973	0	65.8	2	0	
Sub247	RG_10yr	outfall1	0.1797	0	59.9	2	0	
Sub248	RG_10yr	outfall1	0.1457	100	72.9	1.5	0	
Sub249	RG_10yr	outfall1	0.2233	0	74.4	2	0	
Sub250	RG_10yr	outfall1	0.0801	0	26.7	2	0	
Sub251	RG_10yr	outfall1	0.0211	100	52.8	1.5	0	
Sub252	RG_10yr	outfall1	0.1952	80	130.1	2	0	
Sub253	RG_10yr	outfall1	0.02	80	13.3	2	0	
Sub254	RG_10yr	outfall1	0.3131	0	104.4	2	0	
Sub255	RG_10yr	outfall1	0.0084	100	21	1.5	0	
Sub256	RG_10yr	outfall1	0.001	0	0.3	2	0	
Sub257	RG_10yr	outfall1	0.0343	0	11.4	2	0	
Sub258	RG_10yr	outfall1	0.062	0	20.7	2	0	
Sub259	RG_10yr	outfall1	0.02	100	50	1.5	0	
Sub260	RG_10yr	outfall1	0.004	100	10	1.5	0	
Sub261	RG_10yr	outfall1	0.0605	100	151.3	1.5	0	
Sub262	RG_10yr	outfall1	0.7569	0	252.3	2	0	
Sub263	RG_10yr	outfall1	0.0019	100	4.8	1.5	0	
Sub264	RG_10yr	outfall1	0.2669	80	177.9	2	0	
Sub265	RG_10yr	outfall1	0.12	0	40	2	0	
Sub266	RG_10yr	outfall1	0.03	80	20	2	0	
Sub267	RG_10yr	outfall1	0.025	80	16.7	2	0	
Sub268	RG_10yr	outfall1	0.03	80	20	2	0	
Sub269	RG_10yr	outfall1	0.0288	0	9.6	2	0	
Sub270	RG_10yr	outfall1	0.0045	0	1.5	2	0	
Sub271	RG_10yr	outfall1	0.0285	0	9.5	2	0	
Sub272	RG_10yr	outfall1	0.0914	0	30.5	2	0	
Sub273	RG_10yr	outfall1	0.0534	0	17.8	2	0	
Sub274	RG_10yr	outfall1	0.0742	0	24.7	2	0	
Sub275	RG_10yr	outfall1	0.0033	0	1.1	2	0	
Sub276	RG_10yr	outfall1	0.0223	80	14.9	2	0	
Sub277	RG_10yr	outfall1	0.3525	100	1175	2.5	0	
Sub278	RG_10yr	outfall1	0.127	100	423.3	2.5	0	
Sub279	RG_10yr	outfall1	0.0257	100	85.7	2.5	0	
Sub280	RG_10yr	outfall1	0.0037	0	1.2	2	0	
Sub281	RG_10yr	outfall1	0.0547	80	36.5	2	0	
Sub282	RG_10yr	outfall1	0.0326	100	108.7	2.5	0	
Sub283	RG_10yr	outfall1	0.4006	100	1335.3	2.5	0	
Sub284	RG_10yr	outfall1	0.0333	100	111	2.5	0	
Sub285	RG_10yr	outfall1	0.398	100	1326.7	2.5	0	
Sub286	RG_10yr	outfall1	0.3406	100	1135.3	2.5	0	
Sub287	RG_10yr	outfall1	0.2192	100	730.7	2.5	0	
Sub288	RG_10yr	outfall1	0.0229	80	15.3	2	0	
Sub289	RG_10yr	outfall1	0.0013	100	3.3	1.5	0	
Sub290	RG_10yr	outfall1	0.0216	80	14.4	2	0	
Sub291	RG_10yr	outfall1	0.0046	100	2.3	1.5	0	
Sub292	RG_10yr	outfall1	0.0364	100	91	1.5	0	
Sub293	RG_10yr	outfall1	0.0095	100	23.8	1.5	0	
Sub294	RG_10yr	outfall1	0.0201	100	50.3	1.5	0	
Sub295	RG_10yr	outfall1	0.0065	100	16.3	1.5	0	
Sub296	RG_10yr	outfall1	0.151	0	50.3	2	0	
Sub297	RG_10yr	outfall1	0.0516	0	17.2	2	0	
Sub298	RG_10yr	outfall1	0.003	100	7.5	1.5	0	
Sub299	RG_10yr	outfall1	0.0016	100	4	1.5	0	
Sub300	RG_10yr	outfall1	0.0009	100	2.3	1.5	0	
Sub301	RG_10yr	outfall1	0.0025	100	6.3	1.5	0	
Sub302	RG_10yr	outfall1	0.0233	100	11.7	1.5	0	
Sub303	RG_10yr	outfall1	0.0279	100	69.8	1.5	0	
Sub304	RG_10yr	outfall1	0.0385	100	19.3	1.5	0	
Sub305	RG_10yr	outfall1	0.0154	100	7.7	1.5	0	
Sub306	RG_10yr	outfall1	0.0028	100	7	1.5	0	
Sub307	RG_10yr	outfall1	0.0016	100	4	1.5	0	
Sub308	RG_10yr	outfall1	0.0009	0	0.3	2	0	
Sub309	RG_10yr	outfall1	0.0191	100	9.6	1.5	0	
Sub310	RG_10yr	outfall1	0.0016	100	4	1.5	0	
Sub311	RG_10yr	outfall1	0.0009	0	0.3	2	0	
Sub312	RG_10yr	outfall1	0.0148	100	7.4	1.5	0	
Sub313	RG_10yr	outfall1	0.0035	100	8.8	1.5	0	
Sub314	RG_10yr	outfall1	0.0009	0	0.3	2	0	
Sub315	RG_10yr	outfall1	0.002	100	5	1.5	0	
Sub316	RG_10yr	outfall1	0.0006	100	1.5	1.5	0	
Sub317	RG_10yr	outfall1	0.0107	100	5.4	1.5	0	
Sub318	RG_10yr	outfall1	0.0036	100	9	1.5	0	
Sub319	RG_10yr	outfall1	0.0019	100	4.8	1.5	0	
Sub320	RG_10yr	outfall1	0.0056	100	2.8	1.5	0	
Sub321	RG_10yr	outfall1	0.0127	100	6.4	1.5	0	
Sub322	RG_10yr	outfall1	0.0025	100	6.3	1.5	0	
Sub323	RG_10yr	outfall1	0.0016	100	4	1.5	0	
Sub324	RG_10yr	outfall1	0.0384	100	19.2	1.5	0	
Sub325	RG_10yr	outfall1	0.0384	100	19.2	1.5	0	
Sub326	RG_10yr	outfall1	0.0076	0	2.5	2	0	
Sub327	RG_10yr	outfall1	0.003	100	1.5	1.5	0	
Sub328	RG_10yr	outfall1	0.003	100	1.5	1.5	0	
Sub329	RG_10yr	outfall1	0.0061	100	3.1	1.5	0	
Sub330	RG_10yr	outfall1	0.003	100	1.5	1.5	0	
Sub331	RG_10yr	outfall1	0.006	100	3	1.5	0	
Sub332	RG_10yr	outfall1	0.003	100	1.5	1.5	0	
Sub333	RG_10yr	outfall1	0.006	100	3	1.5	0	
Sub334	RG_10yr	outfall1	0.003	100	1.5	1.5	0	
Sub335	RG_10yr	outfall1	0.0029	100	7.3	1.5	0	
Sub336	RG_10yr	Sub357	0.0457	100	22.9	1.5	0	
Sub337	RG_10yr	Sub357	0.0018	100	4.5	1.5	0	
Sub338	RG_10yr	outfall1	0.0012	100	3	1.5	0	
Sub339	RG_10yr	outfall1	0.0045	100	11.3	1.5	0	
Sub340	RG_10yr	Sub357	0.0103	0	3.4	2	0	
Sub341	RG_10yr	Sub357	0.0089	0	3	2	0	
Sub342	RG_10yr	Sub357	0.0174	0	5.8	2	0	
Sub343	RG_10yr	Sub357	0.0077	0	2.6	2	0	
Sub344	RG_10yr	Sub357	0.027	80	18	2	0	
Sub345	RG_10yr	Sub357	0.0175	80	11.7	2	0	
Sub346	RG_10yr	Sub357	0.0092	80	6.1	2	0	
Sub347	RG_10yr	outfall1	0.0096	80	6.4	2	0	
Sub348	RG_10yr	outfall1	0.02	80	13.3	2	0	
Sub349	RG_10yr	outfall1	0.1271	0	42.4	2	0	
Sub350	RG_10yr	outfall1	0.1939	0	64.6	2	0	
Sub351	RG_10yr	outfall1	0.0018	100	4.5	1.5	0	
Sub352	RG_10yr	outfall1	0.004	100	10	1.5	0	
Sub353	RG_10yr	Sub356	0.0465	80	31	2	0	
Sub354	RG_10yr	Sub356	0.0124	80	8.3	2	0	
Sub355	RG_10yr	Sub356	0.0054	0	1.8	2	0	
Sub356	RG_10yr	Sub356	0.335	0	111.7	2	0	
Sub357	RG_10yr	Sub478	0.1804	0	60.1	2	0	
Sub358	RG_10yr	Sub356	0.0519	0	17.3	2	0	
Sub359	RG_10yr	Sub356	0.0199	0	6.6	2	0	
Sub360	RG_10yr	Sub356	0.0093	0	3.1	2	0	
Sub361	RG_10yr	Sub356	0.0531	0	17.7	2	0	
Sub362	RG_10yr	outfall1	0.0035	100	8.8	1.5	0	
Sub363	RG_10yr	outfall1	0.0032	100	8	1.5	0	
Sub364	RG_10yr	outfall1	0.0005	100	1.3	1.5	0	
Sub365	RG_10yr	outfall1	0.0028	100	7	1.5	0	
Sub366	RG_10yr	outfall1	0.0032	100	8	1.5	0	
Sub367	RG_10yr	outfall1	0.0018	100	4.5	1.5	0	
Sub368	RG_10yr	outfall1	0.001	100	2.5	1.5	0	
Sub369	RG_10yr	outfall1	0.0005	100	1.3	1.5	0	
Sub370	RG_10yr	outfall1	0.0044	100	11	1.5	0	
Sub371	RG_10yr	outfall1	0.0044	100	11	1.5	0	
Sub372	RG_10yr	outfall1	0.001	100	2.5	1.5	0	
Sub373	RG_10yr	outfall1	0.0034	100	8.5	1.5	0	
Sub374	RG_10yr	outfall1	0.0015	100	3.8	1.5	0	
Sub375	RG_10yr	outfall1	0.002	100	5	1.5	0	
Sub376	RG_10yr	outfall1	0.0018	100	4.5	1.5	0	
Sub377	RG_10yr	outfall1	0.0039	100	9.8	1.5	0	
Sub378	RG_10yr	outfall1	0.0014	100	3.5	1.5	0	
Sub379	RG_10yr	outfall1	0.0037	100	9.3	1.5	0	
Sub380	RG_10yr	outfall1	0.0013	100	3.3	1.5	0	
Sub381	RG_10yr	outfall1	0.0018	100	4.5	1.5	0	
Sub382	RG_10yr	outfall1	0.0039	100	9.8	1.5	0	
Sub383	RG_10yr	outfall1	0.0014	100	3.5	1.5	0	
Sub384	RG_10yr	outfall1	0.0029	100	7.3	1.5	0	
Sub385	RG_10yr	outfall1	0.0005	100	1.3	1.5	0	
Sub386	RG_10yr	outfall1	0.001	100	2.5	1.5	0	
Sub387	RG_10yr	outfall1	0.2663	0	88.8	2	0	
Sub388	RG_10yr	outfall1	0.024	0	8	2	0	
Sub389	RG_10yr	Sub476	0.474	0	158	2	0	
Sub390	RG_10yr	Sub389	0.1788	0	59.6	2	0	
Sub391	RG_10yr	Sub389	0.0721	80	48.1	2	0	
Sub392	RG_10yr	Sub399	0.0186	0	6.2	2	0	
Sub393	RG_10yr	Sub399	0.0093	0	3.1	2	0	
Sub394	RG_10yr	Sub399	0.0194	0	6.5	2	0	
Sub395	RG_10yr	Sub399	0.0524	0	17.5	2	0	
Sub396	RG_10yr	Sub399	0.0093	0	3.1	2	0	
Sub397	RG_10yr	Sub399	0.0252	0	8.4	2	0	
Sub398	RG_10yr	outfall1	0.1185	100	59.3	1.5	0	
Sub399	RG_10yr	Sub476	0.5362	0	178.7	2	0	
Sub400	RG_10yr	Sub399	0.0721	80	48.1	2	0	
Sub401	RG_10yr	Sub418	0.0631	80	42.1	2	0	
Sub402	RG_10yr	Sub418	0.0515	0	17.2	2	0	
Sub403	RG_10yr	Sub418	0.0093	0	3.1	2	0	
Sub404	RG_10yr	Sub418	0.0177	0	5.9	2	0	
Sub405	RG_10yr	Sub418	0.0093	0	3.1	2	0	
Sub406	RG_10yr	Sub418	0.0521	0	17.4	2	0	
Sub407	RG_10yr	Sub418	0.0188	0	6.3	2	0	
Sub408	RG_10yr	outfall1	0.024	0	8	2	0	
Sub409	RG_10yr	outfall1	0.024	0	8	2	0	
Sub410	RG_10yr	outfall1	0.0243	0	8.1	2	0	
Sub411	RG_10yr	Sub399	0.023	0	7.7	2	0	
Sub412	RG_10yr	outfall1	0.02	80	13.3	2	0	
Sub413	RG_10yr	outfall1	0.02	80	13.3	2	0	
Sub414	RG_10yr	outfall1	0.1682	0	56.1	2	0	
Sub415	RG_10yr	outfall1	0.025	80	16.7	2	0	
Sub416	RG_10yr	outfall1	0.015	80	10	2	0	
Sub417	RG_10yr	outfall1	0.5876	100	1958.7	2.5	0	
Sub418	RG_10yr	Sub476	0.4973	0	165.8	2	0	
Sub419	RG_10yr	outfall1	0.0102	80	6.8	2	0	
Sub420	RG_10yr	outfall1	0.0178	80	11.9	2	0	
Sub421	RG_10yr	outfall1	0.0996	80	66.4	2	0	
Sub422	RG_10yr	outfall1	0.0665	80	44.3	2	0	
Sub423	RG_10yr	outfall1	0.0501	0	16.7	2	0	
Sub424	RG_10yr	outfall1	0.0363	80	24.2	2	0	
Sub425	RG_10yr	outfall1	0.002	100	5	1.5	0	
Sub426	RG_10yr	outfall1	0.001	100	2.5	1.5	0	
Sub427	RG_10yr	outfall1	0.0013	100	3.3	1.5	0	
Sub428	RG_10yr	outfall1	0.0005	100	1.3	1.5	0	
Sub429	RG_10yr	outfall1	0.001	100	2.5	1.5	0	
Sub430	RG_10yr	outfall1	0.0486	0	16.2	2	0	
Sub431	RG_10yr	outfall1	0.036	100	120	2.5	0	
Sub432	RG_10yr	outfall1	0.0034	0	1.1	2	0	
Sub433	RG_10yr	outfall1	0.0105	0	3.5	2	0	
Sub434	RG_10yr	outfall1	0.0105	0	3.5	2	0	
Sub435	RG_10yr	outfall1	0.0072	0	2.4	2	0	
Sub436	RG_10yr	outfall1	0.0033	0	1.1	2	0	
Sub437	RG_10yr	outfall1	0.0105	0	3.5	2	0	
Sub438	RG_10yr	outfall1	0.0105	0	3.5	2	0	
Sub439	RG_10yr	outfall1	0.0072	0	2.4	2	0	
Sub440	RG_10yr	outfall1	0.0072	0	2.4	2	0	
Sub441	RG_10yr	outfall1	0.0105	0	3.5	2	0	
Sub442	RG_10yr	outfall1	0.0105	0	3.5	2	0	
Sub443	RG_10yr	outfall1	0.0034	0	1.1	2	0	
Sub444	RG_10yr	outfall1	0.0069	0	2.3	2	0	
Sub445	RG_10yr	outfall1	0.0081	0	2.7	2	0	
Sub446	RG_10yr	outfall1	0.0081	0	2.7	2	0	
Sub447	RG_10yr	outfall1	0.0102	0	3.4	2	0	
Sub448	RG_10yr	outfall1	0.0034	0	1.1	2	0	
Sub449	RG_10yr	outfall1	0.2227	100	556.8	1.5	0	
Sub450	RG_10yr	outfall1	0.0659	100	164.8	1.5	0	
Sub451	RG_10yr	outfall1	0.2385	100	795	2.5	0	
Sub452	RG_10yr	outfall1	0.0546	80	36.4	2	0	
Sub453	RG_10yr	outfall1	0.048	100	24	2	0	
Sub454	RG_10yr	outfall1	0.0469	100	23.5	2	0	
Sub455	RG_10yr	outfall1	0.2958	100	98.6	2	0	
Sub456	RG_10yr	outfall1	0.1527	100	76.4	2	0	
Sub457	RG_10yr	outfall1	0.8826	100	294.2	2	0	
Sub458	RG_10yr	outfall1	1.5132	100	504.4	2	0	
Sub459	RG_10yr	outfall1	0.4438	100	147.9	2	0	
Sub460	RG_10yr	outfall1	0.479	100	159.7	2	0	
Sub461	RG_10yr	outfall1	0.5041	80	336.1	2	0	
Sub462	RG_10yr	outfall1	0.2045	100	68.2	2	0	
Sub463	RG_10yr	outfall1	0.2642	100	88.1	2	0	
Sub464	RG_10yr	outfall1	0.3531	100	117.7	2	0	
Sub465	RG_10yr	outfall1	0.3281	100	109.4	2	0	
Sub466	RG_10yr	outfall1	0.0896	100	29.9	2	0	
Sub467	RG_10yr	outfall1	0.0879	100	29.3	2	0	
Sub468	RG_10yr	outfall1	0.2064	100	68.8	2	0	
Sub469	RG_10yr	outfall1	0.0058	100	14.5	1.5	0	
Sub470	RG_10yr	outfall1	0.0081	100	20.3	1.5	0	
Sub471	RG_10yr	outfall1	0.0041	100	10.3	1.5	0	
Sub472	RG_10yr	outfall1	0.006	100	15	1.5	0	
Sub473	RG_10yr	outfall1	0.0031	100	7.8	1.5	0	
Sub474	RG_10yr	outfall1	0.034	100	11.3	2	0	
Sub475	RG_10yr	outfall1	0.0341	100	11.4	2	0	
Sub476	RG_10yr	outfall1	1.1873	0	395.8	2	0	
Sub477	RG_10yr	outfall1	0.2639	0	88	2	0	
Sub478	RG_10yr	outfall1	0.4186	0	139.5	2	0	
Sub479	RG_10yr	outfall1	0.2777	0	92.6	2	0	
Sub480	RG_10yr	outfall1	0.3263	100	815.8	1.5	0	
Sub481	RG_10yr	outfall1	0.182	100	455	1.5	0	
Sub482	RG_10yr	outfall1	0.1281	100	320.3	1.5	0	
Sub483	RG_10yr	outfall1	0.1295	100	323.8	1.5	0	
Sub484	RG_10yr	outfall1	0.1339	100	334.8	1.5	0	
Sub485	RG_10yr	outfall1	0.1046	100	261.5	1.5	0	
Sub486	RG_10yr	outfall1	0.2174	100	724.7	2.5	0	
Sub487	RG_10yr	outfall1	0.5406	100	1802	2.5	0	
Sub488	RG_10yr	outfall1	0.3604	100	1201.3	2.5	0	
Sub489	RG_10yr	outfall1	0.3657	100	1219	2.5	0	
Sub490	RG_10yr	outfall1	0.3577	100	1192.3	2.5	0	
Sub491	RG_10yr	outfall1	0.2992	100	997.3	2.5	0	
Sub492	RG_10yr	outfall1	0.2114	100	704.7	2.5	0	
Sub493	RG_10yr	outfall1	0.2511	100	837	2.5	0	
Sub494	RG_10yr	outfall1	0.29	100	966.7	2.5	0	
Sub495	RG_10yr	outfall1	0.3658	100	1219.3	2.5	0	
Sub496	RG_10yr	outfall1	0.3518	100	1172.7	2.5	0	
Sub497	RG_10yr	outfall1	0.2638	100	879.3	2.5	0	
Sub498	RG_10yr	outfall1	0.2335	100	778.3	2.5	0	
Sub499	RG_10yr	outfall1	0.3737	100	1245.7	2.5	0	
Sub500	RG_10yr	outfall1	0.3218	100	1072.7	2.5	0	
Sub501	RG_10yr	outfall1	0.3503	100	1167.7	2.5	0	
Sub502	RG_10yr	outfall1	0	100	0	1.5	0	
Sub503	RG_10yr	outfall1	0.1867	100	466.8	1.5	0	

[SUBAREAS]
;;Subcatchment  	N-Imperv  	N-Perv    	S-Imperv  	S-Perv    	PctZero   	RouteTo   	PctRouted 
;;--------------	----------	----------	----------	----------	----------	----------	----------
Sub000	0.01	0.15	1.91	3.81	25	OUTLET	
Sub001	0.01	0.15	1.91	3.81	25	OUTLET	
Sub002	0.01	0.15	1.91	3.81	25	OUTLET	
Sub003	0.01	0.15	1.91	3.81	25	OUTLET	
Sub004	0.01	0.15	1.91	3.81	25	OUTLET	
Sub005	0.01	0.15	1.91	3.81	25	OUTLET	
Sub006	0.01	0.15	1.91	3.81	25	OUTLET	
Sub007	0.01	0.15	1.91	3.81	25	OUTLET	
Sub008	0.01	0.15	1.91	3.81	25	OUTLET	
Sub009	0.01	0.15	1.91	3.81	25	OUTLET	
Sub010	0.01	0.15	1.91	3.81	25	OUTLET	
Sub011	0.01	0.15	1.91	3.81	25	OUTLET	
Sub012	0.01	0.15	1.91	3.81	25	OUTLET	
Sub013	0.01	0.15	1.91	3.81	25	OUTLET	
Sub014	0.01	0.15	1.91	3.81	25	OUTLET	
Sub015	0.01	0.15	1.91	3.81	25	OUTLET	
Sub016	0.01	0.15	1.91	3.81	25	OUTLET	
Sub017	0.01	0.15	1.91	3.81	25	OUTLET	
Sub018	0.01	0.15	1.91	3.81	25	OUTLET	
Sub019	0.01	0.15	1.91	3.81	25	OUTLET	
Sub020	0.01	0.15	1.91	3.81	25	OUTLET	
Sub021	0.01	0.15	1.91	3.81	25	OUTLET	
Sub022	0.01	0.15	1.91	3.81	25	OUTLET	
Sub023	0.01	0.15	1.91	3.81	25	OUTLET	
Sub024	0.01	0.15	1.91	3.81	25	OUTLET	
Sub025	0.01	0.15	1.91	3.81	25	OUTLET	
Sub026	0.01	0.15	1.91	3.81	25	OUTLET	
Sub027	0.01	0.15	1.91	3.81	25	OUTLET	
Sub028	0.01	0.15	1.91	3.81	25	OUTLET	
Sub029	0.01	0.15	1.91	3.81	25	OUTLET	
Sub030	0.01	0.15	1.91	3.81	25	OUTLET	
Sub031	0.01	0.15	1.91	3.81	25	OUTLET	
Sub032	0.01	0.15	1.91	3.81	25	OUTLET	
Sub033	0.01	0.15	1.91	3.81	25	OUTLET	
Sub034	0.01	0.15	1.91	3.81	25	OUTLET	
Sub035	0.01	0.15	1.91	3.81	25	OUTLET	
Sub036	0.01	0.15	1.91	3.81	25	OUTLET	
Sub037	0.01	0.15	1.91	3.81	25	OUTLET	
Sub038	0.01	0.15	1.91	3.81	25	OUTLET	
Sub039	0.01	0.15	1.91	3.81	25	OUTLET	
Sub040	0.01	0.15	1.91	3.81	25	OUTLET	
Sub041	0.01	0.15	1.91	3.81	25	OUTLET	
Sub042	0.01	0.15	1.91	3.81	25	OUTLET	
Sub043	0.01	0.15	1.91	3.81	25	OUTLET	
Sub044	0.01	0.15	1.91	3.81	25	OUTLET	
Sub045	0.01	0.15	1.91	3.81	25	OUTLET	
Sub046	0.01	0.15	1.91	3.81	25	OUTLET	
Sub047	0.01	0.15	1.91	3.81	25	OUTLET	
Sub048	0.01	0.15	1.91	3.81	25	OUTLET	
Sub049	0.01	0.15	1.91	3.81	25	OUTLET	
Sub050	0.01	0.15	1.91	3.81	25	OUTLET	
Sub051	0.01	0.15	1.91	3.81	25	OUTLET	
Sub052	0.01	0.15	1.91	3.81	25	OUTLET	
Sub053	0.01	0.15	1.91	3.81	25	OUTLET	
Sub054	0.01	0.15	1.91	3.81	25	OUTLET	
Sub055	0.01	0.15	1.91	3.81	25	OUTLET	
Sub056	0.01	0.15	1.91	3.81	25	OUTLET	
Sub057	0.01	0.15	1.91	3.81	25	OUTLET	
Sub058	0.01	0.15	1.91	3.81	25	OUTLET	
Sub059	0.01	0.15	1.91	3.81	25	OUTLET	
Sub060	0.01	0.15	1.91	3.81	25	OUTLET	
Sub061	0.01	0.15	1.91	3.81	25	OUTLET	
Sub062	0.01	0.15	1.91	3.81	25	OUTLET	
Sub063	0.01	0.15	1.91	3.81	25	OUTLET	
Sub064	0.01	0.15	1.91	3.81	25	OUTLET	
Sub065	0.01	0.15	1.91	3.81	25	OUTLET	
Sub066	0.01	0.15	1.91	3.81	25	OUTLET	
Sub067	0.01	0.15	1.91	3.81	25	OUTLET	
Sub068	0.01	0.15	1.91	3.81	25	OUTLET	
Sub069	0.01	0.15	1.91	3.81	25	OUTLET	
Sub070	0.01	0.15	1.91	3.81	25	OUTLET	
Sub071	0.01	0.15	1.91	3.81	25	OUTLET	
Sub072	0.01	0.15	1.91	3.81	25	OUTLET	
Sub073	0.01	0.15	1.91	3.81	25	OUTLET	
Sub074	0.01	0.15	1.91	5.08	25	OUTLET	
Sub075	0.01	0.15	1.91	3.81	25	OUTLET	
Sub076	0.01	0.15	1.91	3.81	25	OUTLET	
Sub077	0.01	0.15	1.91	3.81	25	OUTLET	
Sub078	0.01	0.15	1.91	3.81	25	OUTLET	
Sub079	0.01	0.15	1.91	5.08	25	OUTLET	
Sub080	0.01	0.15	1.91	3.81	25	OUTLET	
Sub081	0.01	0.15	1.91	3.81	25	OUTLET	
Sub082	0.01	0.15	1.91	3.81	25	OUTLET	
Sub083	0.01	0.15	1.91	3.81	25	OUTLET	
Sub084	0.01	0.15	1.91	3.81	25	OUTLET	
Sub085	0.01	0.15	1.91	3.81	25	OUTLET	
Sub086	0.01	0.15	1.91	3.81	25	OUTLET	
Sub087	0.01	0.15	1.91	3.81	25	OUTLET	
Sub088	0.01	0.15	1.91	3.81	25	OUTLET	
Sub089	0.01	0.15	1.91	5.08	25	OUTLET	
Sub090	0.01	0.15	1.91	5.08	25	OUTLET	
Sub091	0.01	0.15	1.91	5.08	25	OUTLET	
Sub092	0.01	0.15	1.91	5.08	25	OUTLET	
Sub093	0.01	0.15	1.91	3.81	25	OUTLET	
Sub094	0.01	0.15	1.91	3.81	25	OUTLET	
Sub095	0.01	0.15	1.91	3.81	25	OUTLET	
Sub096	0.01	0.15	1.91	3.81	25	OUTLET	
Sub097	0.01	0.15	1.91	3.81	25	OUTLET	
Sub098	0.01	0.15	1.91	3.81	25	OUTLET	
Sub099	0.01	0.15	1.91	3.81	25	OUTLET	
Sub100	0.01	0.15	1.91	3.81	25	OUTLET	
Sub101	0.01	0.15	1.91	3.81	25	OUTLET	
Sub102	0.01	0.15	1.91	3.81	25	OUTLET	
Sub103	0.01	0.15	1.91	3.81	25	OUTLET	
Sub104	0.01	0.15	1.91	5.08	25	OUTLET	
Sub105	0.01	0.15	1.91	5.08	25	OUTLET	
Sub106	0.01	0.15	1.91	3.81	25	OUTLET	
Sub107	0.01	0.15	1.91	3.81	25	OUTLET	
Sub108	0.01	0.15	1.91	3.81	25	OUTLET	
Sub109	0.01	0.15	1.91	5.08	25	OUTLET	
Sub110	0.01	0.15	1.91	3.81	25	OUTLET	
Sub111	0.01	0.15	1.91	3.81	25	OUTLET	
Sub112	0.01	0.15	1.91	3.81	25	OUTLET	
Sub113	0.01	0.15	1.91	3.81	25	OUTLET	
Sub114	0.01	0.15	1.91	3.81	25	OUTLET	
Sub115	0.01	0.15	1.91	3.81	25	OUTLET	
Sub116	0.01	0.15	1.91	3.81	25	OUTLET	
Sub117	0.01	0.15	1.91	3.81	25	OUTLET	
Sub118	0.01	0.15	1.91	3.81	25	OUTLET	
Sub119	0.01	0.15	1.91	3.81	25	OUTLET	
Sub120	0.01	0.15	1.91	3.81	25	OUTLET	
Sub121	0.01	0.15	1.91	3.81	25	OUTLET	
Sub122	0.01	0.15	1.91	3.81	25	OUTLET	