[TITLE]
;;Project Title/Notes
Grasbrook

[OPTIONS]
;;Option            	Value
FLOW_UNITS          	LPS
INFILTRATION        	GREEN_AMPT
FLOW_ROUTING        	DYNWAVE
LINK_OFFSETS        	DEPTH
MIN_SLOPE           	0
ALLOW_PONDING       	NO
SKIP_STEADY_STATE   	NO

START_DATE          	01/01/2021
START_TIME          	00:00:00
REPORT_START_DATE   	01/01/2021
REPORT_START_TIME   	00:00:00
END_DATE            	01/01/2021
END_TIME            	04:00:00
SWEEP_START         	01/01
SWEEP_END           	12/31
DRY_DAYS            	0
REPORT_STEP         	00:01:00
WET_STEP            	00:01:00
DRY_STEP            	01:00:00
ROUTING_STEP        	0:01:00 
RULE_STEP           	00:00:00

INERTIAL_DAMPING    	PARTIAL
NORMAL_FLOW_LIMITED 	SLOPE
FORCE_MAIN_EQUATION 	H-W
VARIABLE_STEP       	0.75
LENGTHENING_STEP    	0
MIN_SURFAREA        	1.167
MAX_TRIALS          	8
HEAD_TOLERANCE      	0.0015
SYS_FLOW_TOL        	5
LAT_FLOW_TOL        	5
MINIMUM_STEP        	0.5
THREADS             	1

[EVAPORATION]
;;Data Source   	Parameters
;;--------------	----------------
MONTHLY         	0.3556	0.8382	2.5654	3.8354	4.6482	5.7658	5.8674	5.08  	3.9878	2.5146	1.7018	0.7112
DRY_ONLY        	YES

[RAINGAGES]
;;Name          	Format   	Interval	SCF     	Source    
;;--------------	---------	------	------	----------
RG_2yr          	INTENSITY	0:05    	1       	FILE      	"../data/rain_data/timeseries_2.txt"	2-yr      	MM  
RG_5yr          	INTENSITY	0:05    	1       	FILE      	"../data/rain_data/timeseries_5.txt"	5-yr      	MM 
RG_10yr         	INTENSITY	0:05    	1       	FILE      	"../data/rain_data/timeseries_10.txt"   10-yr  		MM   
RG_50yr         	INTENSITY	0:05    	1       	FILE      	"../data/rain_data/timeseries_50.txt"	50-yr     	MM   
RG_100yr        	INTENSITY	0:05    	1       	FILE      	"../data/rain_data/timeseries_100.txt"	100-yr    	MM   

[SUBCATCHMENTS]
;;Name          	Rain Gage       	Outlet          	Area    	%Imperv 	Width   	%Slope  	CurbLen 	SnowPack        
;;--------------	----------------	----------------	--------	--------	--------	--------	--------	----------------
Sub000          	RG_2yr          	outfall1        	0.0228  	100     	11.4    	2       	0       	                
Sub001          	RG_2yr          	outfall1        	0.1984  	100     	99.2    	2       	0       	                
Sub002          	RG_2yr          	outfall1        	0.0469  	100     	23.5    	2       	0       	                
Sub003          	RG_2yr          	outfall1        	0.0469  	100     	23.5    	2       	0       	                
Sub004          	RG_2yr          	outfall1        	0.0576  	100     	19.2    	2       	0       	                
Sub005          	RG_2yr          	outfall1        	0.0449  	100     	15      	2       	0       	                
Sub006          	RG_2yr          	outfall1        	0.0449  	100     	15      	2       	0       	                
Sub007          	RG_2yr          	outfall1        	0.0576  	100     	19.2    	2       	0       	                
Sub008          	RG_2yr          	outfall1        	0.0576  	100     	19.2    	2       	0       	                
Sub009          	RG_2yr          	outfall1        	0.0615  	100     	20.5    	2       	0       	                
Sub010          	RG_2yr          	outfall1        	0.0615  	100     	20.5    	2       	0       	                
Sub011          	RG_2yr          	outfall1        	0.0615  	100     	20.5    	2       	0       	                
Sub012          	RG_2yr          	outfall1        	0.0576  	100     	19.2    	2       	0       	                
Sub013          	RG_2yr          	outfall1        	0.0615  	100     	20.5    	2       	0       	                
Sub014          	RG_2yr          	outfall1        	0.0615  	100     	20.5    	2       	0       	                
Sub015          	RG_2yr          	outfall1        	0.0615  	100     	20.5    	2       	0       	                
Sub016          	RG_2yr          	outfall1        	0.0576  	100     	19.2    	2       	0       	                
Sub017          	RG_2yr          	outfall1        	0.0615  	100     	20.5    	2       	0       	                
Sub018          	RG_2yr          	outfall1        	0.0615  	100     	20.5    	2       	0       	                
Sub019          	RG_2yr          	outfall1        	0.0615  	100     	20.5    	2       	0       	                
Sub020          	RG_2yr          	outfall1        	0.0576  	100     	19.2    	2       	0       	                
Sub021          	RG_2yr          	outfall1        	0.2555  	100     	85.2    	2       	0       	                
Sub022          	RG_2yr          	outfall1        	0.0342  	100     	11.4    	2       	0       	                
Sub023          	RG_2yr          	Sub357          	0.063   	100     	21      	2       	0       	                
Sub024          	RG_2yr          	Sub357          	0.0548  	100     	18.3    	2       	0       	                
Sub025          	RG_2yr          	Sub357          	0.0486  	100     	16.2    	2       	0       	                
Sub026          	RG_2yr          	Sub357          	0.0635  	100     	21.2    	2       	0       	                
Sub027          	RG_2yr          	Sub357          	0.0988  	100     	49.4    	2       	0       	                
Sub028          	RG_2yr          	Sub356          	0.0723  	100     	24.1    	2       	0       	                
Sub029          	RG_2yr          	Sub356          	0.074   	100     	24.7    	2       	0       	                
Sub030          	RG_2yr          	Sub356          	0.0508  	100     	16.9    	2       	0       	                
Sub031          	RG_2yr          	Sub356          	0.0457  	100     	15.2    	2       	0       	                
Sub032          	RG_2yr          	Sub356          	0.049   	100     	16.3    	2       	0       	                
Sub033          	RG_2yr          	Sub356          	0.04    	100     	13.3    	2       	0       	                
Sub034          	RG_2yr          	Sub356          	0.0911  	100     	45.6    	2       	0       	                
Sub035          	RG_2yr          	Sub418          	0.0551  	100     	18.4    	2       	0       	                
Sub036          	RG_2yr          	Sub418          	0.0737  	100     	24.6    	2       	0       	                
Sub037          	RG_2yr          	Sub418          	0.0508  	100     	16.9    	2       	0       	                
Sub038          	RG_2yr          	Sub418          	0.064   	100     	21.3    	2       	0       	                
Sub039          	RG_2yr          	Sub418          	0.062   	100     	20.7    	2       	0       	                
Sub040          	RG_2yr          	Sub418          	0.04    	100     	13.3    	2       	0       	                
Sub041          	RG_2yr          	Sub418          	0.0882  	100     	29.4    	2       	0       	                
Sub042          	RG_2yr          	Sub418          	0.0468  	100     	23.4    	2       	0       	                
Sub043          	RG_2yr          	Sub399          	0.0642  	100     	21.4    	2       	0       	                
Sub044          	RG_2yr          	Sub399          	0.0741  	100     	24.7    	2       	0       	                
Sub045          	RG_2yr          	Sub399          	0.0508  	100     	16.9    	2       	0       	                
Sub046          	RG_2yr          	Sub399          	0.0541  	100     	27.1    	2       	0       	                
Sub047          	RG_2yr          	Sub399          	0.058   	100     	19.3    	2       	0       	                
Sub048          	RG_2yr          	Sub399          	0.0557  	100     	18.6    	2       	0       	                
Sub049          	RG_2yr          	Sub399          	0.0975  	100     	32.5    	2       	0       	                
Sub050          	RG_2yr          	Sub399          	0.04    	100     	13.3    	2       	0       	                
Sub051          	RG_2yr          	Sub399          	0.058   	100     	19.3    	2       	0       	                
Sub052          	RG_2yr          	Sub389          	0.0566  	100     	18.9    	2       	0       	                
Sub053          	RG_2yr          	Sub389          	0.1026  	100     	34.2    	2       	0       	                
Sub054          	RG_2yr          	Sub389          	0.0837  	100     	27.9    	2       	0       	                
Sub055          	RG_2yr          	Sub389          	0.0725  	100     	24.2    	2       	0       	                
Sub056          	RG_2yr          	Sub389          	0.04    	100     	13.3    	2       	0       	                
Sub057          	RG_2yr          	Sub389          	0.1221  	100     	61.1    	2       	0       	                
Sub058          	RG_2yr          	Sub389          	0.0572  	100     	19.1    	2       	0       	                
Sub059          	RG_2yr          	Sub389          	0.058   	100     	19.3    	2       	0       	                
Sub060          	RG_2yr          	outfall1        	0.121   	100     	60.5    	2       	0       	                
Sub061          	RG_2yr          	outfall1        	0.0846  	100     	28.2    	2       	0       	                
Sub062          	RG_2yr          	outfall1        	0.1201  	100     	40      	2       	0       	                
Sub063          	RG_2yr          	outfall1        	0.0929  	100     	31      	2       	0       	                
Sub064          	RG_2yr          	outfall1        	0.0929  	100     	31      	2       	0       	                
Sub065          	RG_2yr          	outfall1        	0.0929  	100     	31      	2       	0       	                
Sub066          	RG_2yr          	outfall1        	0.9272  	100     	309.1   	2       	0       	                
Sub067          	RG_2yr          	outfall1        	0.1157  	100     	38.6    	2       	0       	                
Sub068          	RG_2yr          	outfall1        	0.6725  	100     	224.2   	2       	0       	                
Sub069          	RG_2yr          	outfall1        	0.1199  	100     	40      	2       	0       	                
Sub070          	RG_2yr          	outfall1        	0.4341  	100     	144.7   	2       	0       	                
Sub071          	RG_2yr          	outfall1        	0.7996  	100     	266.5   	2       	0       	                
Sub072          	RG_2yr          	outfall1        	0.7948  	80      	529.9   	2       	0       	                
Sub073          	RG_2yr          	outfall1        	0.0877  	100     	29.2    	2       	0       	                
Sub074          	RG_2yr          	outfall1        	0.2581  	0       	86      	2       	0       	                
Sub075          	RG_2yr          	outfall1        	0.0024  	100     	6       	1.5     	0       	                
Sub076          	RG_2yr          	outfall1        	0.0476  	100     	119     	1.5     	0       	                
Sub077          	RG_2yr          	outfall1        	0.0411  	100     	102.8   	1.5     	0       	                
Sub078          	RG_2yr          	outfall1        	0.0009  	100     	2.3     	1.5     	0       	                
Sub079          	RG_2yr          	outfall1        	0.0556  	0       	18.5    	2       	0       	                
Sub080          	RG_2yr          	outfall1        	0.018   	100     	45      	1.5     	0       	                
Sub081          	RG_2yr          	outfall1        	0.1852  	100     	463     	1.5     	0       	                
Sub082          	RG_2yr          	outfall1        	0.0283  	100     	70.8    	1.5     	0       	                
Sub083          	RG_2yr          	outfall1        	0.0038  	100     	9.5     	1.5     	0       	                
Sub084          	RG_2yr          	outfall1        	0.0022  	100     	5.5     	1.5     	0       	                
Sub085          	RG_2yr          	outfall1        	0.0022  	100     	5.5     	1.5     	0       	                
Sub086          	RG_2yr          	outfall1        	0.0022  	100     	5.5     	1.5     	0       	                
Sub087          	RG_2yr          	outfall1        	0.0022  	100     	5.5     	1.5     	0       	                
Sub088          	RG_2yr          	outfall1        	0.0027  	100     	6.8     	1.5     	0       	                
Sub089          	RG_2yr          	outfall1        	0.016   	0       	5.3     	2       	0       	                
Sub090          	RG_2yr          	outfall1        	0.018   	0       	6       	2       	0       	                
Sub091          	RG_2yr          	outfall1        	0.018   	0       	6       	2       	0       	                
Sub092          	RG_2yr          	outfall1        	0.0309  	0       	10.3    	2       	0       	                
Sub093          	RG_2yr          	outfall1        	0.1852  	100     	463     	1.5     	0       	                
Sub094          	RG_2yr          	outfall1        	0.1826  	100     	456.5   	1.5     	0       	                
Sub095          	RG_2yr          	outfall1        	0.0141  	100     	35.3    	1.5     	0       	                
Sub096          	RG_2yr          	outfall1        	0.0167  	100     	41.8    	1.5     	0       	                
Sub097          	RG_2yr          	outfall1        	0.0162  	100     	40.5    	1.5     	0       	                
Sub098          	RG_2yr          	outfall1        	0.0523  	100     	130.8   	1.5     	0       	                
Sub099          	RG_2yr          	outfall1        	0.152   	100     	380     	1.5     	0       	                
Sub100          	RG_2yr          	outfall1        	0.0029  	100     	7.3     	1.5     	0       	                
Sub101          	RG_2yr          	outfall1        	0.008   	100     	20      	1.5     	0       	                
Sub102          	RG_2yr          	outfall1        	0.0084  	100     	21      	1.5     	0       	                
Sub103          	RG_2yr          	outfall1        	0.0154  	100     	38.5    	1.5     	0       	                
Sub104          	RG_2yr          	outfall1        	0.4339  	0       	144.6   	2       	0       	                
Sub105          	RG_2yr          	outfall1        	0.884   	0       	294.7   	2       	0       	                
Sub106          	RG_2yr          	outfall1        	0.039   	100     	19.5    	1.5     	0       	                
Sub107          	RG_2yr          	outfall1        	0.0289  	100     	14.5    	1.5     	0       	                
Sub108          	RG_2yr          	outfall1        	0.0375  	100     	18.8    	1.5     	0       	                
Sub109          	RG_2yr          	outfall1        	0.0593  	0       	19.8    	2       	0       	                
Sub110          	RG_2yr          	outfall1        	0.0169  	100     	42.3    	1.5     	0       	                
Sub111          	RG_2yr          	outfall1        	0.0226  	100     	56.5    	1.5     	0       	                
Sub112          	RG_2yr          	outfall1        	0.0238  	100     	59.5    	1.5     	0       	                
Sub113          	RG_2yr          	outfall1        	0.1807  	80      	120.5   	2       	0       	                
Sub114          	RG_2yr          	outfall1        	0.01    	80      	6.7     	2       	0       	                
Sub115          	RG_2yr          	outfall1        	0.077   	100     	192.5   	1.5     	0       	                
Sub116          	RG_2yr          	outfall1        	0.0192  	100     	48      	1.5     	0       	                
Sub117          	RG_2yr          	outfall1        	0.0192  	100     	48      	1.5     	0       	                
Sub118          	RG_2yr          	outfall1        	0.0192  	100     	48      	1.5     	0       	                
Sub119          	RG_2yr          	outfall1        	0.0312  	100     	78      	1.5     	0       	                
Sub120          	RG_2yr          	outfall1        	0.0029  	100     	7.3     	1.5     	0       	                
Sub121          	RG_2yr          	outfall1        	0.0208  	80      	13.9    	2       	0       	                
Sub122          	RG_2yr          	outfall1        	0.0174  	80      	11.6    	2       	0       	                
Sub123          	RG_2yr          	outfall1        	0.0173  	80      	11.5    	2       	0       	                
Sub124          	RG_2yr          	outfall1        	0.0223  	80      	14.9    	2       	0       	                
Sub125          	RG_2yr          	outfall1        	0.0544  	80      	36.3    	2       	0       	                
Sub126          	RG_2yr          	outfall1        	0.0401  	80      	26.7    	2       	0       	                
Sub127          	RG_2yr          	outfall1        	0.0289  	80      	19.3    	2       	0       	                
Sub128          	RG_2yr          	outfall1        	0.0015  	100     	3.8     	1.5     	0       	                
Sub129          	RG_2yr          	outfall1        	0.0028  	100     	7       	1.5     	0       	                
Sub130          	RG_2yr          	outfall1        	0.005   	100     	12.5    	1.5     	0       	                
Sub131          	RG_2yr          	outfall1        	0.0034  	100     	8.5     	1.5     	0       	                
Sub132          	RG_2yr          	outfall1        	0.0133  	100     	33.3    	1.5     	0       	                
Sub133          	RG_2yr          	outfall1        	0.0997  	100     	49.9    	1.5     	0       	                
Sub134          	RG_2yr          	outfall1        	0.0138  	0       	4.6     	2       	0       	                
Sub135          	RG_2yr          	outfall1        	0.0502  	0       	16.7    	2       	0       	                
Sub136          	RG_2yr          	outfall1        	0.0683  	0       	22.8    	2       	0       	                
Sub137          	RG_2yr          	outfall1        	0.1004  	0       	33.5    	2       	0       	                
Sub138          	RG_2yr          	outfall1        	0.1155  	0       	38.5    	2       	0       	                
Sub139          	RG_2yr          	outfall1        	0.0721  	80      	48.1    	2       	0       	                
Sub140          	RG_2yr          	outfall1        	0.0364  	80      	24.3    	2       	0       	                
Sub141          	RG_2yr          	outfall1        	0.1537  	100     	384.3   	1.5     	0       	                
Sub142          	RG_2yr          	outfall1        	0.1423  	100     	355.8   	1.5     	0       	                
Sub143          	RG_2yr          	outfall1        	0.1532  	100     	383     	1.5     	0       	                
Sub144          	RG_2yr          	outfall1        	0.2325  	100     	581.3   	1.5     	0       	                
Sub145          	RG_2yr          	outfall1        	0.0026  	100     	6.5     	1.5     	0       	                
Sub146          	RG_2yr          	outfall1        	0.1875  	0       	62.5    	2       	0       	                
Sub147          	RG_2yr          	outfall1        	0.0985  	100     	246.3   	1.5     	0       	                
Sub148          	RG_2yr          	outfall1        	0.0573  	100     	143.3   	1.5     	0       	                
Sub149          	RG_2yr          	outfall1        	0.0877  	100     	219.3   	1.5     	0       	                
Sub150          	RG_2yr          	outfall1        	0.0258  	100     	64.5    	1.5     	0       	                
Sub151          	RG_2yr          	outfall1        	0.0213  	100     	53.3    	1.5     	0       	                
Sub152          	RG_2yr          	outfall1        	0.0041  	100     	10.3    	1.5     	0       	                
Sub153          	RG_2yr          	outfall1        	0.0088  	100     	22      	1.5     	0       	                
Sub154          	RG_2yr          	outfall1        	0.2643  	0       	88.1    	2       	0       	                
Sub155          	RG_2yr          	outfall1        	0.0264  	100     	66      	1.5     	0       	                
Sub156          	RG_2yr          	outfall1        	0.0379  	100     	94.8    	1.5     	0       	                
Sub157          	RG_2yr          	outfall1        	0.0077  	100     	19.3    	1.5     	0       	                
Sub158          	RG_2yr          	outfall1        	0.0091  	100     	22.8    	1.5     	0       	                
Sub159          	RG_2yr          	outfall1        	0.0022  	100     	5.5     	1.5     	0       	                
Sub160          	RG_2yr          	outfall1        	0.0067  	100     	16.8    	1.5     	0       	                
Sub161          	RG_2yr          	outfall1        	0.0423  	100     	105.8   	1.5     	0       	                
Sub162          	RG_2yr          	outfall1        	0.3079  	0       	102.6   	2       	0       	                
Sub163          	RG_2yr          	outfall1        	0.028   	80      	18.7    	2       	0       	                
Sub164          	RG_2yr          	outfall1        	0.0898  	0       	29.9    	2       	0       	                
Sub165          	RG_2yr          	outfall1        	0.0274  	100     	68.5    	1.5     	0       	                
Sub166          	RG_2yr          	outfall1        	0.0633  	100     	158.3   	1.5     	0       	                
Sub167          	RG_2yr          	outfall1        	0.0183  	100     	61      	2.5     	0       	                
Sub168          	RG_2yr          	outfall1        	0.0127  	100     	31.8    	1.5     	0       	                
Sub169          	RG_2yr          	outfall1        	0.0162  	100     	40.5    	1.5     	0       	                
Sub170          	RG_2yr          	outfall1        	0.0462  	100     	23.1    	1.5     	0       	                
Sub171          	RG_2yr          	outfall1        	0.0227  	100     	11.4    	1.5     	0       	                
Sub172          	RG_2yr          	outfall1        	0.0208  	100     	10.4    	1.5     	0       	                
Sub173          	RG_2yr          	outfall1        	0.2006  	80      	133.7   	2       	0       	                
Sub174          	RG_2yr          	outfall1        	1.0474  	100     	523.7   	1.5     	0       	                
Sub175          	RG_2yr          	outfall1        	0.0045  	100     	11.3    	1.5     	0       	                
Sub176          	RG_2yr          	outfall1        	0.0045  	100     	11.3    	1.5     	0       	                
Sub177          	RG_2yr          	outfall1        	0.0384  	100     	19.2    	1.5     	0       	                
Sub178          	RG_2yr          	outfall1        	0.0121  	100     	6.1     	1.5     	0       	                
Sub179          	RG_2yr          	outfall1        	0.065   	80      	43.3    	2       	0       	                
Sub180          	RG_2yr          	outfall1        	0.063   	100     	157.5   	1.5     	0       	                
Sub181          	RG_2yr          	outfall1        	0.2363  	0       	78.8    	2       	0       	                
Sub182          	RG_2yr          	outfall1        	0.1409  	0       	47      	2       	0       	                
Sub183          	RG_2yr          	outfall1        	0.0136  	0       	4.5     	2       	0       	                
Sub184          	RG_2yr          	outfall1        	0.1227  	0       	40.9    	2       	0       	                
Sub185          	RG_2yr          	outfall1        	0.047   	0       	15.7    	2       	0       	                
Sub186          	RG_2yr          	outfall1        	0.2239  	0       	74.6    	2       	0       	                
Sub187          	RG_2yr          	outfall1        	0.1501  	0       	50      	2       	0       	                
Sub188          	RG_2yr          	outfall1        	0.1046  	0       	34.9    	2       	0       	                
Sub189          	RG_2yr          	outfall1        	0.086   	0       	28.7    	2       	0       	                
Sub190          	RG_2yr          	outfall1        	0.1816  	0       	60.5    	2       	0       	                
Sub191          	RG_2yr          	outfall1        	0.013   	0       	4.3     	2       	0       	                
Sub192          	RG_2yr          	outfall1        	0.0027  	100     	6.8     	1.5     	0       	                
Sub193          	RG_2yr          	outfall1        	0.0048  	0       	1.6     	2       	0       	                
Sub194          	RG_2yr          	outfall1        	0.0436  	0       	14.5    	2       	0       	                
Sub195          	RG_2yr          	outfall1        	0.0117  	0       	3.9     	2       	0       	                
Sub196          	RG_2yr          	outfall1        	0.1529  	0       	51      	2       	0       	                
Sub197          	RG_2yr          	outfall1        	0.0094  	100     	31.3    	2.5     	0       	                
Sub198          	RG_2yr          	outfall1        	0.0307  	80      	20.5    	2       	0       	                
Sub199          	RG_2yr          	outfall1        	0.0855  	100     	213.8   	1.5     	0       	                
Sub200          	RG_2yr          	outfall1        	0.1056  	100     	264     	1.5     	0       	                
Sub201          	RG_2yr          	outfall1        	0.2334  	0       	77.8    	2       	0       	                
Sub202          	RG_2yr          	outfall1        	0.1721  	0       	57.4    	2       	0       	                
Sub203          	RG_2yr          	outfall1        	0.05    	0       	16.7    	2       	0       	                
Sub204          	RG_2yr          	outfall1        	0.044   	0       	14.7    	2       	0       	                
Sub205          	RG_2yr          	outfall1        	0.044   	0       	14.7    	2       	0       	                
Sub206          	RG_2yr          	outfall1        	0.05    	0       	16.7    	2       	0       	                
Sub207          	RG_2yr          	outfall1        	0.1697  	0       	56.6    	2       	0       	                
Sub208          	RG_2yr          	outfall1        	0.0802  	100     	40.1    	1.5     	0       	                
Sub209          	RG_2yr          	outfall1        	0.0016  	100     	4       	1.5     	0       	                
Sub210          	RG_2yr          	outfall1        	0.0168  	0       	5.6     	2       	0       	                
Sub211          	RG_2yr          	outfall1        	0.1786  	100     	89.3    	1.5     	0       	                
Sub212          	RG_2yr          	outfall1        	0.013   	100     	32.5    	1.5     	0       	                
Sub213          	RG_2yr          	outfall1        	0.0016  	100     	4       	1.5     	0       	                
Sub214          	RG_2yr          	outfall1        	0.0389  	100     	97.3    	1.5     	0       	                
Sub215          	RG_2yr          	outfall1        	0.007   	100     	17.5    	1.5     	0       	                
Sub216          	RG_2yr          	outfall1        	0.0348  	0       	11.6    	2       	0       	                
Sub217          	RG_2yr          	outfall1        	0.0267  	100     	66.8    	1.5     	0       	                
Sub218          	RG_2yr          	outfall1        	0.0003  	100     	0.8     	1.5     	0       	                
Sub219          	RG_2yr          	outfall1        	0.0045  	100     	11.3    	1.5     	0       	                
Sub220          	RG_2yr          	outfall1        	0.0007  	0       	0.2     	2       	0       	                
Sub221          	RG_2yr          	outfall1        	0.0031  	100     	1.6     	1.5     	0       	                
Sub222          	RG_2yr          	outfall1        	0.0001  	0       	0       	2       	0       	                
Sub223          	RG_2yr          	outfall1        	0.0656  	0       	21.9    	2       	0       	                
Sub224          	RG_2yr          	outfall1        	0.036   	80      	24      	2       	0       	                
Sub225          	RG_2yr          	outfall1        	0.0705  	80      	47      	2       	0       	                
Sub226          	RG_2yr          	outfall1        	0.0609  	80      	40.6    	2       	0       	                
Sub227          	RG_2yr          	outfall1        	0.037   	80      	24.7    	2       	0       	                
Sub228          	RG_2yr          	outfall1        	0.0021  	100     	5.3     	1.5     	0       	                
Sub229          	RG_2yr          	outfall1        	0.0696  	100     	174     	1.5     	0       	                
Sub230          	RG_2yr          	outfall1        	0.0024  	100     	6       	1.5     	0       	                
Sub231          	RG_2yr          	outfall1        	0.0199  	0       	6.6     	2       	0       	                
Sub232          	RG_2yr          	outfall1        	0.0811  	0       	27      	2       	0       	                
Sub233          	RG_2yr          	outfall1        	0.04    	0       	13.3    	2       	0       	                
Sub234          	RG_2yr          	outfall1        	0.0023  	100     	5.8     	1.5     	0       	                
Sub235          	RG_2yr          	outfall1        	0.0037  	0       	1.2     	2       	0       	                
Sub236          	RG_2yr          	outfall1        	0.0023  	100     	5.8     	1.5     	0       	                
Sub237          	RG_2yr          	outfall1        	0.0767  	100     	191.8   	1.5     	0       	                
Sub238          	RG_2yr          	outfall1        	0.0729  	80      	48.6    	2       	0       	                
Sub239          	RG_2yr          	outfall1        	0.1338  	100     	66.9    	1.5     	0       	                
Sub240          	RG_2yr          	outfall1        	0.0786  	100     	39.3    	1.5     	0       	                
Sub241          	RG_2yr          	outfall1        	0.0106  	100     	26.5    	1.5     	0       	                
Sub242          	RG_2yr          	outfall1        	0.0999  	100     	249.8   	1.5     	0       	                
Sub243          	RG_2yr          	outfall1        	0.8604  	80      	573.6   	2       	0       	                